<?xml version='1.0' encoding='utf-8'?>
<routes>
  <vType id="passenger" vClass="passenger" length="4.5" accel="2.08" decel="4.05" sigma="0.65" maxSpeed="12.75" color="0,1,1" tau="1.5" />
  <vType id="motorcycle" vClass="motorcycle" length="2.0" accel="2.80" decel="4.50" sigma="0.65" maxSpeed="17.00" minGap="1.0" color="0,1,0" tau="1.5" />
  <vType id="truck" vClass="truck" length="10.0" accel="0.80" decel="2.25" sigma="0.65" maxSpeed="8.50" minGap="3.5" color="0,0,1" tau="1.5" />
  <vType id="bus" vClass="bus" length="12.0" accel="0.96" decel="2.70" sigma="0.65" maxSpeed="10.20" minGap="3.0" color="1,0,0" tau="1.5" />
  <vehicle id="i1_0" depart="0.00" type="passenger">
    <route edges="771731732 1159554013#0 135488882#0 780210981#0 780210980 28215290#0 436198228#0" />
  </vehicle>
  <vehicle id="i1_2" depart="4.00" type="passenger">
    <route edges="771754621 771731732 1159554013#0 135488882#0 780210981#0 780210980 137366598#0 135623338#0 771688494#0 135623660#0" />
  </vehicle>
  <vehicle id="i1_3" depart="6.00" type="passenger">
    <route edges="771754621 771731732 1159554013#0 135488882#0 780210981#0 780210980" />
  </vehicle>
  <vehicle id="i1_4" depart="8.00" type="truck">
    <route edges="135623338#0 771688494#0 771692031#0 831791125#0 585291309#0 771693399 771714814 24585853 771736795 604773906" />
  </vehicle>
  <vehicle id="i1_5" depart="10.00" type="passenger">
    <route edges="780002168#0 780002167 137366601#0 28215294#0 771693399 771714814 24585853 771736795 604773906" />
  </vehicle>
  <vehicle id="i1_6" depart="12.00" type="passenger">
    <route edges="1177245703 1177245706 771714812#0 23768614 E1 744281459#0 771698634#0 771698634#0.34 771702976#0 23768622#0 436198228#0" />
  </vehicle>
  <vehicle id="i1_7" depart="14.00" type="passenger">
    <route edges="137366598#0 135623338#0 771688494#0 771692031#0 831791125#0 585291309#0 771693399 771714814 24585853 771736795 604773906" />
  </vehicle>
  <vehicle id="f1_4" depart="19.20" type="truck">
    <route edges="135488883#0 780611992 135489025 1177245709 135488882#0 780210981#0" />
  </vehicle>
  <vehicle id="i1_10" depart="20.00" type="passenger">
    <route edges="771754621 771731732 1159554013#0 135488882#0 780210981#0 780210980 137366598#0" />
  </vehicle>
  <vehicle id="i1_11" depart="22.00" type="passenger">
    <route edges="780002167 137366601#0 28215294#0 771693399 771714814 24585853 771736795 604773906" />
  </vehicle>
  <vehicle id="i1_14" depart="28.00" type="passenger">
    <route edges="771702976#0 23768622#0 807042703#0 780002168#0 780002167 137366601#0 28215294#0 771693399 771714814 24585853 771736795 604773906" />
  </vehicle>
  <vehicle id="i1_15" depart="30.00" type="truck">
    <route edges="771754621 1177245703 1177245706 771714812#0 23768614 E1 744281459#0 771698634#0" />
  </vehicle>
  <vehicle id="f1_7" depart="33.60" type="passenger">
    <route edges="135488883#0 780611992 135489025 1177245709 135488882#0 780210981#0 780210980 137366598#0 135623338#0 135623552#0" />
  </vehicle>
  <vehicle id="i1_17" depart="34.00" type="passenger">
    <route edges="137366604#0 807042703#0 780002168#0 780002167 137366601#0 28215294#0 771693399 771714814 24585853 771736795 24585832#0" />
  </vehicle>
  <vehicle id="i1_18" depart="36.00" type="passenger">
    <route edges="771692031#0 831791125#0 585291309#0 771693399 771714814 24585853 771736795 604773906" />
  </vehicle>
  <vehicle id="f1_8" depart="38.40" type="passenger">
    <route edges="135488883#0 780611992 135489025 1177245709 135488882#0 780210981#0 780210980 137366598#0 135623338#0 771688494#0 771692031#0 831791125#0 585291309#0 771693399 24577040 771714812#0 23768614 E1 744281459#0" />
  </vehicle>
  <vehicle id="i1_20" depart="40.00" type="passenger">
    <route edges="137366604#0 807042703#0 780002168#0 780002167 137366601#0 28215294#0 771693399 771714814 24585853 771736795 604773906" />
  </vehicle>
  <vehicle id="i1_21" depart="42.00" type="passenger">
    <route edges="771754621 771731732 1159554013#0 135488882#0 780210981#0 780210980 137366598#0 771702976#0 23768622#0 807042703#0" />
  </vehicle>
  <vehicle id="f1_9" depart="43.20" type="passenger">
    <route edges="135488883#0 780611992 135489025 1177245709 135488882#0 780210981#0 780210980 137366598#0 771702976#0 504344458" />
  </vehicle>
  <vehicle id="i1_22" depart="44.00" type="passenger">
    <route edges="771692031#0 831791125#0 585291309#0 771693399 771714814 24585853 771736795 604773906" />
  </vehicle>
  <vehicle id="i1_24" depart="48.00" type="passenger">
    <route edges="780002167 137366601#0 28215294#0 771693399 771714814 24585853 771736795 604773906" />
  </vehicle>
  <vehicle id="f1_11" depart="52.80" type="passenger">
    <route edges="135488883#0 780611992 135489025 1177245709 135488882#0 780210981#0" />
  </vehicle>
  <vehicle id="i1_27" depart="54.00" type="passenger">
    <route edges="771754621 771731732 1159554013#0 135488882#0 780210981#0 780210980 28215290#0 771782259#0" />
  </vehicle>
  <vehicle id="i1_28" depart="56.00" type="passenger">
    <route edges="771754621 771731732 1159554013#0 135488882#0 780210981#0 780210980" />
  </vehicle>
  <vehicle id="f1_12" depart="57.60" type="passenger">
    <route edges="135488883#0 23768613 1177245702" />
  </vehicle>
  <vehicle id="i1_29" depart="58.00" type="passenger">
    <route edges="771754621 771731732 1159554013#0 135488882#0 780210981#0 780210980 137366598#0 771702976#0 504344458" />
  </vehicle>
  <vehicle id="i1_30" depart="60.00" type="passenger">
    <route edges="435677131#0 771688494#0 771692031#0 831791125#0 585291309#0 771693399 771714814 24585853 771736795 24585832#0" />
  </vehicle>
  <vehicle id="i1_31" depart="62.00" type="passenger">
    <route edges="771754621 771731732 1159554013#0 135488882#0 780210981#0 780210980 137366598#0 135623338#0 771688494#0 135623660#0" />
  </vehicle>
  <vehicle id="f1_13" depart="62.40" type="passenger">
    <route edges="135488883#0 780611992 135489025 1177245709 135488882#0 780210981#0 780210980 137366598#0 135623338#0 771688494#0 771692031#0 831791125#0 585291309#0 771693399" />
  </vehicle>
  <vehicle id="i1_32" depart="64.00" type="passenger">
    <route edges="771731732 1159554013#0 135488882#0 780210981#0 780210980 28215290#0 436198228#0" />
  </vehicle>
  <vehicle id="i1_33" depart="66.00" type="passenger">
    <route edges="771754621 771731732 1159554013#0 135488882#0 780210981#0 780210980 137366598#0" />
  </vehicle>
  <vehicle id="f1_14" depart="67.20" type="passenger">
    <route edges="135488883#0 780611992 135489025 1177245709 135488882#0 780210981#0 780210980 137366598#0 135623338#0 771688494#0 771692031#0 831791125#0 585291309#0 771693399 24577040 771714812#0" />
  </vehicle>
  <vehicle id="i1_34" depart="68.00" type="passenger">
    <route edges="135623338#0 771688494#0 771692031#0 831791125#0 585291309#0 771693399 771714814 24585853 771736795 604773906" />
  </vehicle>
  <vehicle id="i1_35" depart="70.00" type="passenger">
    <route edges="771754621 771731732 1159554013#0 135488882#0 780210981#0 780210980 28215290#0" />
  </vehicle>
  <vehicle id="f1_15" depart="72.00" type="bus">
    <route edges="135488883#0 780611992 135489025 1177245709 135488882#0 780210981#0 780210980 137366598#0 135623338#0 771688494#0 771692031#0 831791125#0 585291309#0 771693399 771714814" />
  </vehicle>
  <vehicle id="i1_38" depart="76.00" type="truck">
    <route edges="771754621 771731732 1159554013#0 135488882#0 780210981#0 780210980 28215290#0" />
  </vehicle>
  <vehicle id="f1_16" depart="76.80" type="passenger">
    <route edges="135488883#0 780611992 135489025 1177245709 135488882#0 780210981#0 780210980 137366598#0 771702976#0 23768622#0 807042703#0 780002168#0 780002167" />
  </vehicle>
  <vehicle id="i1_39" depart="78.00" type="passenger">
    <route edges="318479152#0 771692031#0 831791125#0 585291309#0 771693399 771714814 24585853 771736795 604773906" />
  </vehicle>
  <vehicle id="i1_40" depart="80.00" type="passenger">
    <route edges="771754621 771731732 1159554013#0 135488882#0 780210981#0 780210980 137366598#0 771702976#0 23768622#0 807042703#0" />
  </vehicle>
  <vehicle id="f1_17" depart="81.60" type="passenger">
    <route edges="135488883#0 780611992 135489025 1177245709 135488882#0 780210981#0" />
  </vehicle>
  <vehicle id="i1_41" depart="82.00" type="passenger">
    <route edges="771692031#0 831791125#0 585291309#0 771693399 771714814 24585853 771736795 604773906" />
  </vehicle>
  <vehicle id="i1_43" depart="86.00" type="passenger">
    <route edges="137366604#0 807042703#0 780002168#0 780002167 137366601#0 28215294#0 771693399 771714814 24585853 771736795 604773906" />
  </vehicle>
  <vehicle id="f1_18" depart="86.40" type="truck">
    <route edges="135488883#0 780611992 135489025 1177245709 135488882#0" />
  </vehicle>
  <vehicle id="i1_44" depart="88.00" type="passenger">
    <route edges="23768622#0 807042703#0 780002168#0 780002167 137366601#0 28215294#0 771693399 771714814 24585853 771736795 604773906" />
  </vehicle>
  <vehicle id="i1_45" depart="90.00" type="passenger">
    <route edges="137366604#0 807042703#0 780002168#0 780002167 137366601#0 28215294#0 771693399 771714814 24585853 771736795 24585832#0" />
  </vehicle>
  <vehicle id="f1_19" depart="91.20" type="truck">
    <route edges="135488883#0 780611992 135489025 1177245709 135488882#0 780210981#0 780210980 137366598#0 135623338#0 771688494#0 771692031#0 831791125#0 585291309#0 771693399 24577040" />
  </vehicle>
  <vehicle id="i1_46" depart="92.00" type="passenger">
    <route edges="771754621 771731732 1159554013#0 135488882#0 780210981#0 780210980 137366598#0 771702976#0" />
  </vehicle>
  <vehicle id="i1_47" depart="94.00" type="passenger">
    <route edges="807042703#0 780002168#0 780002167 137366601#0 28215294#0 771693399 771714814 24585853 771736795 604773906" />
  </vehicle>
  <vehicle id="i1_49" depart="98.00" type="passenger">
    <route edges="771754621 771731732 1159554013#0 135488882#0 780210981#0 780210980 28215290#0 436198228#0" />
  </vehicle>
  <vehicle id="f1_21" depart="100.80" type="passenger">
    <route edges="135488883#0 780611992 135489025 1177245709 135488882#0 780210981#0 780210980 28215290#0 436198228#0" />
  </vehicle>
  <vehicle id="i1_51" depart="102.00" type="passenger">
    <route edges="771754621 1177245703 1177245706 771714812#0 23768614 E1 744281459#0 771698634#0 771698634#0.34" />
  </vehicle>
  <vehicle id="i1_53" depart="106.00" type="passenger">
    <route edges="771754621 771731732 1159554013#0 135488882#0 780210981#0 780210980 137366598#0 771702976#0 504344458" />
  </vehicle>
  <vehicle id="i1_54" depart="108.00" type="passenger">
    <route edges="771702976#0 23768622#0 807042703#0 780002168#0 780002167 137366601#0 28215294#0 771693399 771714814 24585853 771736795 604773906" />
  </vehicle>
  <vehicle id="i1_55" depart="110.00" type="passenger">
    <route edges="1177245703 1177245706 771714812#0 23768614 E1 744281459#0 771698634#0 771698634#0.34 771702976#0 23768622#0 436198228#0" />
  </vehicle>
  <vehicle id="i1_57" depart="114.00" type="passenger">
    <route edges="771754621 771731732 1159554013#0 135488882#0 780210981#0 780210980 137366598#0" />
  </vehicle>
  <vehicle id="f1_24" depart="115.20" type="passenger">
    <route edges="135488883#0 780611992 135489025 1177245709 135488882#0 780210981#0 780210980 137366598#0 771702976#0 23768622#0 807042703#0 780002168#0 780002167 137366601#0" />
  </vehicle>
  <vehicle id="i1_60" depart="120.00" type="passenger">
    <route edges="435677131#0 771688494#0 771692031#0 831791125#0 585291309#0 771693399 771714814 24585853 771736795 604773906" />
  </vehicle>
  <vehicle id="f1_25" depart="120.00" type="passenger">
    <route edges="135488883#0 23768613 1177245702 771736795 24585832#0" />
  </vehicle>
  <vehicle id="i1_62" depart="124.00" type="passenger">
    <route edges="771702976#0 23768622#0 807042703#0 780002168#0 780002167 137366601#0 28215294#0 771693399 771714814 24585853 771736795 604773906" />
  </vehicle>
  <vehicle id="f1_26" depart="124.80" type="passenger">
    <route edges="135488883#0 780611992 135489025 1177245709 135488882#0 780210981#0 780210980 137366598#0 135623338#0 771688494#0 771692031#0 831791125#0 585291309#0" />
  </vehicle>
  <vehicle id="i1_64" depart="128.00" type="passenger">
    <route edges="780002168#0 780002167 137366601#0 28215294#0 771693399 771714814 24585853 771736795 604773906" />
  </vehicle>
  <vehicle id="f1_27" depart="129.60" type="passenger">
    <route edges="135488883#0 780611992 135489025 1177245709 135488882#0 780210981#0 780210980 137366598#0 135623338#0 135623552#0" />
  </vehicle>
  <vehicle id="i1_66" depart="132.00" type="passenger">
    <route edges="1177245703 1177245706 771714812#0 23768614 E1 744281459#0 771698634#0 771698634#0.34 771702976#0 23768622#0 436198228#0" />
  </vehicle>
  <vehicle id="i1_67" depart="134.00" type="passenger">
    <route edges="771754621 771731732 1159554013#0 135488882#0 780210981#0 780210980 137366598#0 135623338#0" />
  </vehicle>
  <vehicle id="f1_28" depart="134.40" type="passenger">
    <route edges="135488883#0 780611992 135489025 1177245709 135488882#0 780210981#0 780210980 137366598#0 135623338#0 771688494#0 771692031#0 771698634#0" />
  </vehicle>
  <vehicle id="i1_68" depart="136.00" type="truck">
    <route edges="771754621 771731732 1159554013#0 135488882#0 780210981#0 780210980 137366598#0 771702976#0 504344458" />
  </vehicle>
  <vehicle id="i1_69" depart="138.00" type="passenger">
    <route edges="771754621 1177245703 1177245706 771714812#0 135489026" />
  </vehicle>
  <vehicle id="i1_70" depart="140.00" type="passenger">
    <route edges="137366604#0 807042703#0 780002168#0 780002167 137366601#0 28215294#0 771693399 771714814 24585853 771736795 604773906" />
  </vehicle>
  <vehicle id="i1_71" depart="142.00" type="passenger">
    <route edges="771754621 771731732 1159554013#0 135488882#0 780210981#0 780210980 137366598#0 771702976#0 23768622#0" />
  </vehicle>
  <vehicle id="i1_72" depart="144.00" type="passenger">
    <route edges="771754621 771731732 1159554013#0 135488882#0 780210981#0 780210980 137366598#0" />
  </vehicle>
  <vehicle id="i1_73" depart="146.00" type="bus">
    <route edges="807042703#0 780002168#0 780002167 137366601#0 28215294#0 771693399 771714814 24585853 771736795 604773906" />
  </vehicle>
  <vehicle id="i1_74" depart="148.00" type="passenger">
    <route edges="135623338#0 771688494#0 771692031#0 831791125#0 585291309#0 771693399 771714814 24585853 771736795 604773906" />
  </vehicle>
  <vehicle id="f1_31" depart="148.80" type="passenger">
    <route edges="135488883#0 780611992 135489025 1177245709 135488882#0 780210981#0 780210980 137366598#0 135623338#0 771688494#0 771692031#0 831791125#0 585291309#0 771693399 24577040 771714812#0 23768614 771698635#0" />
  </vehicle>
  <vehicle id="i1_75" depart="150.00" type="passenger">
    <route edges="137366604#0 807042703#0 780002168#0 780002167 137366601#0 28215294#0 771693399 771714814 24585853 771736795 24585832#0" />
  </vehicle>
  <vehicle id="i1_76" depart="152.00" type="passenger">
    <route edges="771754621 771731732 1159554013#0 135488882#0 780210981#0 780210980 137366598#0 135623338#0 771688494#0" />
  </vehicle>
  <vehicle id="f1_32" depart="153.60" type="passenger">
    <route edges="135488883#0 780611992 135489025 1177245709 135488882#0 780210981#0 780210980 137366598#0 135623338#0 771688494#0 771692031#0 831791125#0 773857905 E0" />
  </vehicle>
  <vehicle id="i1_78" depart="156.00" type="passenger">
    <route edges="771754621 771731732 1159554013#0 135488882#0 780210981#0 780210980 137366598#0 771702976#0 23768622#0 807042703#0" />
  </vehicle>
  <vehicle id="i1_79" depart="158.00" type="passenger">
    <route edges="771754621 771731732 1159554013#0 135488882#0 780210981#0 780210980 137366598#0 771702976#0 23768622#0 807042703#0" />
  </vehicle>
  <vehicle id="i1_80" depart="160.00" type="bus">
    <route edges="137366598#0 135623338#0 771688494#0 771692031#0 831791125#0 585291309#0 771693399 771714814 24585853 771736795 604773906" />
  </vehicle>
  <vehicle id="i1_81" depart="162.00" type="passenger">
    <route edges="771754621 771731732 1159554013#0 135488882#0 780210981#0 780210980 137366598#0 135623338#0 771688494#0" />
  </vehicle>
  <vehicle id="f1_34" depart="163.20" type="passenger">
    <route edges="135488883#0 780611992 135489025 1177245709 135488882#0 780210981#0 780210980 137366598#0 771702976#0 23768622#0" />
  </vehicle>
  <vehicle id="i1_82" depart="164.00" type="passenger">
    <route edges="771754621 771731732 1159554013#0 135488882#0 780210981#0 780210980 28215290#0" />
  </vehicle>
  <vehicle id="i1_83" depart="166.00" type="passenger">
    <route edges="771754621 771731732 1159554013#0 135488882#0 780210981#0 780210980 137366598#0 771702976#0 23768622#0 807042703#0 780002168#0" />
  </vehicle>
  <vehicle id="i1_84" depart="168.00" type="passenger">
    <route edges="771754621 771731732 1159554013#0 135488882#0 780210981#0 780210980 137366598#0 771702976#0" />
  </vehicle>
  <vehicle id="f1_35" depart="168.00" type="passenger">
    <route edges="135488883#0 780611992 135489025 1177245709 135488882#0 780210981#0 780210980 137366598#0 135623338#0 771688494#0 135623660#0" />
  </vehicle>
  <vehicle id="i1_85" depart="170.00" type="passenger">
    <route edges="771754621 771731732 1159554013#0 135488882#0 780210981#0 780210980 137366598#0" />
  </vehicle>
  <vehicle id="i1_86" depart="172.00" type="passenger">
    <route edges="135623338#0 771688494#0 771692031#0 831791125#0 585291309#0 771693399 771714814 24585853 771736795 604773906" />
  </vehicle>
  <vehicle id="f1_36" depart="172.80" type="passenger">
    <route edges="135488883#0 780611992 135489025 1177245709 135488882#0 318479147#0" />
  </vehicle>
  <vehicle id="i1_87" depart="174.00" type="passenger">
    <route edges="771754621 771731732 1159554013#0 135488882#0 780210981#0 780210980 137366598#0 135623338#0 771688494#0" />
  </vehicle>
  <vehicle id="i1_88" depart="176.00" type="passenger">
    <route edges="771754621 771731732 1159554013#0 135488882#0 780210981#0 780210980 137366598#0 771702976#0 23768622#0 807042703#0" />
  </vehicle>
  <vehicle id="f1_37" depart="177.60" type="passenger">
    <route edges="135488883#0 780611992 135489025 1177245709 135488882#0 780210981#0 780210980 137366598#0" />
  </vehicle>
  <vehicle id="i1_89" depart="178.00" type="passenger">
    <route edges="771754621 771731732 1159554013#0 135488882#0 780210981#0 780210980 28215290#0 771782259#0" />
  </vehicle>
  <vehicle id="i1_90" depart="180.00" type="passenger">
    <route edges="771702976#0 23768622#0 807042703#0 780002168#0 780002167 137366601#0 28215294#0 771693399 771714814 24585853 771736795 604773906" />
  </vehicle>
  <vehicle id="i1_91" depart="182.00" type="passenger">
    <route edges="771754621 1177245703 1177245706 771714812#0 23768614 E1 744281459#0 831791125#0 773857905 E0" />
  </vehicle>
  <vehicle id="f1_38" depart="182.40" type="passenger">
    <route edges="135488883#0 780611992 135489025 1177245709 135488882#0 780210981#0 780210980 137366598#0 135623338#0 771688494#0 771692031#0 831791125#0 585291309#0 771693399 24577040 771714812#0 23768614 E1 744281459#0" />
  </vehicle>
  <vehicle id="i1_92" depart="184.00" type="passenger">
    <route edges="771754621 771731732 1159554013#0 135488882#0 780210981#0 780210980 137366598#0 135623338#0" />
  </vehicle>
  <vehicle id="i1_93" depart="186.00" type="passenger">
    <route edges="771754621 771731732 1159554013#0 135488882#0 780210981#0 780210980 28215290#0 436198228#0" />
  </vehicle>
  <vehicle id="f1_39" depart="187.20" type="passenger">
    <route edges="135488883#0 780611992 135489025 1177245709 135488882#0 780210981#0 780210980 137366598#0 771702976#0 504344458" />
  </vehicle>
  <vehicle id="i1_94" depart="188.00" type="passenger">
    <route edges="771754621 1177245703 1177245706 771714812#0 23768614 E1 744281459#0 771698634#0" />
  </vehicle>
  <vehicle id="i1_95" depart="190.00" type="passenger">
    <route edges="771754621 771731732 1159554013#0 135488882#0 780210981#0 780210980 28215290#0 771782259#0" />
  </vehicle>
  <vehicle id="i1_96" depart="192.00" type="passenger">
    <route edges="23768622#0 807042703#0 780002168#0 780002167 137366601#0 28215294#0 771693399 771714814 24585853 771736795 604773906" />
  </vehicle>
  <vehicle id="f1_40" depart="192.00" type="passenger">
    <route edges="135488883#0 780611992 135489025 1177245709 135488882#0 780210981#0 780210980 137366598#0 135623338#0 771688494#0 771692031#0 831791125#0 585291309#0 771693399 771714814" />
  </vehicle>
  <vehicle id="i1_97" depart="194.00" type="passenger">
    <route edges="771754621 771731732 1159554013#0 135488882#0 780210981#0 780210980 28215290#0 771782259#0" />
  </vehicle>
  <vehicle id="i1_98" depart="196.00" type="passenger">
    <route edges="135623338#0 771688494#0 771692031#0 831791125#0 585291309#0 771693399 771714814 24585853 771736795 604773906" />
  </vehicle>
  <vehicle id="f1_41" depart="196.80" type="passenger">
    <route edges="135488883#0 780611992 135489025 1177245709 135488882#0 780210981#0" />
  </vehicle>
  <vehicle id="i1_99" depart="198.00" type="passenger">
    <route edges="771754621 771731732 1159554013#0 135488882#0 780210981#0 780210980 137366598#0 135623338#0 771688494#0" />
  </vehicle>
  <vehicle id="i1_100" depart="200.00" type="passenger">
    <route edges="780002167 137366601#0 28215294#0 771693399 771714814 24585853 771736795 604773906" />
  </vehicle>
  <vehicle id="f1_42" depart="201.60" type="truck">
    <route edges="135488883#0 23768613 1177245702 771736795" />
  </vehicle>
  <vehicle id="i1_101" depart="202.00" type="passenger">
    <route edges="23768622#0 807042703#0 780002168#0 780002167 137366601#0 28215294#0 771693399 771714814 24585853 771736795 604773906" />
  </vehicle>
  <vehicle id="i1_103" depart="206.00" type="passenger">
    <route edges="807042703#0 780002168#0 780002167 137366601#0 28215294#0 771693399 771714814 24585853 771736795 604773906" />
  </vehicle>
  <vehicle id="f1_44" depart="211.20" type="passenger">
    <route edges="135488883#0 780611992 135489025 1177245709 135488882#0 780210981#0 780210980 137366598#0 135623338#0" />
  </vehicle>
  <vehicle id="i1_106" depart="212.00" type="passenger">
    <route edges="780002167 137366601#0 28215294#0 771693399 771714814 24585853 771736795 604773906" />
  </vehicle>
  <vehicle id="i1_107" depart="214.00" type="passenger">
    <route edges="435677131#0 771688494#0 771692031#0 831791125#0 585291309#0 771693399 771714814 24585853 771736795 24585832#0" />
  </vehicle>
  <vehicle id="i1_108" depart="216.00" type="passenger">
    <route edges="771754621 771731732 1159554013#0 135488882#0 780210981#0 780210980 28215290#0" />
  </vehicle>
  <vehicle id="f1_45" depart="216.00" type="passenger">
    <route edges="135488883#0 780611992 135489025 1177245709 135488882#0 780210981#0 780210980 137366598#0 135623338#0 771688494#0 771692031#0 831791125#0 585291309#0 771693399 771714814 24585853" />
  </vehicle>
  <vehicle id="i1_110" depart="220.00" type="passenger">
    <route edges="771754621 771731732 1159554013#0 135488882#0 780210981#0 780210980 137366598#0 771702976#0 504344458" />
  </vehicle>
  <vehicle id="f1_46" depart="220.80" type="passenger">
    <route edges="135488883#0 780611992 135489025 1177245709 135488882#0 780210981#0 780210980 137366598#0 771702976#0" />
  </vehicle>
  <vehicle id="i1_111" depart="222.00" type="passenger">
    <route edges="771688494#0 771692031#0 831791125#0 585291309#0 771693399 771714814 24585853 771736795 604773906" />
  </vehicle>
  <vehicle id="i1_112" depart="224.00" type="passenger">
    <route edges="771702976#0 23768622#0 807042703#0 780002168#0 780002167 137366601#0 28215294#0 771693399 771714814 24585853 771736795 604773906" />
  </vehicle>
  <vehicle id="i1_114" depart="228.00" type="passenger">
    <route edges="771754621 771731732 1159554013#0 135488882#0 780210981#0 780210980 137366598#0 135623338#0 771688494#0" />
  </vehicle>
  <vehicle id="i1_115" depart="230.00" type="passenger">
    <route edges="771754621 771731732 1159554013#0 135488882#0 780210981#0 780210980 137366598#0 135623338#0 135623552#0" />
  </vehicle>
  <vehicle id="f1_48" depart="230.40" type="passenger">
    <route edges="135488883#0 780611992 135489025 1177245709 135488882#0 780210981#0 780210980 137366598#0 135623338#0 771688494#0 771692031#0 831791125#0" />
  </vehicle>
  <vehicle id="i1_116" depart="232.00" type="passenger">
    <route edges="771754621 771731732 1159554013#0 135488882#0 780210981#0 780210980" />
  </vehicle>
  <vehicle id="i1_117" depart="234.00" type="passenger">
    <route edges="137366604#0 807042703#0 780002168#0 780002167 137366601#0 28215294#0 771693399 771714814 24585853 771736795 604773906" />
  </vehicle>
  <vehicle id="f1_49" depart="235.20" type="passenger">
    <route edges="135488883#0 780611992 135489025 1177245709 135488882#0 780210981#0 780210980 137366598#0 135623338#0 771688494#0 771692031#0" />
  </vehicle>
  <vehicle id="i1_119" depart="238.00" type="passenger">
    <route edges="771754621 771731732 1159554013#0 135488882#0 780210981#0 780210980 137366598#0 771702976#0 504344458" />
  </vehicle>
  <vehicle id="i1_121" depart="242.00" type="passenger">
    <route edges="435677131#0 771688494#0 771692031#0 831791125#0 585291309#0 771693399 771714814 24585853 771736795 604773906" />
  </vehicle>
  <vehicle id="i1_122" depart="244.00" type="passenger">
    <route edges="771754621 771731732 1159554013#0 135488882#0 780210981#0 780210980 137366598#0" />
  </vehicle>
  <vehicle id="f1_51" depart="244.80" type="passenger">
    <route edges="135488883#0 780611992 135489025 1177245709 135488882#0 780210981#0 780210980 137366598#0 135623338#0 771688494#0 771692031#0 831791125#0 585291309#0 771693399 24577040 771714812#0 23768614 E1" />
  </vehicle>
  <vehicle id="i1_123" depart="246.00" type="passenger">
    <route edges="771754621 771731732 1159554013#0 135488882#0 780210981#0 780210980 137366598#0 135623338#0 771688494#0 135623660#0" />
  </vehicle>
  <vehicle id="i1_124" depart="248.00" type="passenger">
    <route edges="771698634#0.34 135623338#0 771688494#0 771692031#0 831791125#0 585291309#0 771693399 771714814 24585853 771736795 604773906" />
  </vehicle>
  <vehicle id="i1_125" depart="250.00" type="passenger">
    <route edges="23768622#0 807042703#0 780002168#0 780002167 137366601#0 28215294#0 771693399 771714814 24585853 771736795 604773906" />
  </vehicle>
  <vehicle id="i1_126" depart="252.00" type="passenger">
    <route edges="807042703#0 780002168#0 780002167 137366601#0 28215294#0 771693399 771714814 24585853 771736795 604773906" />
  </vehicle>
  <vehicle id="i1_127" depart="254.00" type="passenger">
    <route edges="771754621 771731732 1159554013#0 135488882#0 780210981#0 780210980" />
  </vehicle>
  <vehicle id="f1_53" depart="254.40" type="passenger">
    <route edges="135488883#0 780611992 135489025 1177245709 135488882#0 780210981#0 780210980 137366598#0 135623338#0 771688494#0 771692031#0 831791125#0 585291309#0 771693399 24577040" />
  </vehicle>
  <vehicle id="i1_129" depart="258.00" type="passenger">
    <route edges="771754621 1177245703 1177245706 771714812#0 23768614 E1 744281459#0 771698634#0" />
  </vehicle>
  <vehicle id="i1_130" depart="260.00" type="truck">
    <route edges="771754621 771731732 1159554013#0 135488882#0 780210981#0 780210980 137366598#0 771702976#0" />
  </vehicle>
  <vehicle id="i1_132" depart="264.00" type="passenger">
    <route edges="771754621 771731732 1159554013#0 135488882#0 780210981#0 780210980 137366598#0 135623338#0" />
  </vehicle>
  <vehicle id="f1_55" depart="264.00" type="passenger">
    <route edges="135488883#0 780611992 135489025 1177245709 135488882#0 780210981#0 780210980 137366598#0 135623338#0 771688494#0 771692031#0 831791125#0 773857905 E0" />
  </vehicle>
  <vehicle id="i1_133" depart="266.00" type="passenger">
    <route edges="771754621 771731732 1159554013#0 135488882#0 780210981#0 780210980 137366598#0 135623338#0 771688494#0 135623660#0" />
  </vehicle>
  <vehicle id="i1_134" depart="268.00" type="passenger">
    <route edges="771754621 771731732 1159554013#0 135488882#0 780210981#0 780210980 137366598#0" />
  </vehicle>
  <vehicle id="i1_136" depart="272.00" type="passenger">
    <route edges="771702976#0 23768622#0 807042703#0 780002168#0 780002167 137366601#0 28215294#0 771693399 771714814 24585853 771736795 604773906" />
  </vehicle>
  <vehicle id="i1_137" depart="274.00" type="passenger">
    <route edges="771754621 1177245703 1177245706 771714812#0 23768614 E1 744281459#0 771698634#0" />
  </vehicle>
  <vehicle id="i1_141" depart="282.00" type="passenger">
    <route edges="771754621 771731732 1159554013#0 135488882#0 780210981#0 780210980 28215290#0 436198228#0" />
  </vehicle>
  <vehicle id="f1_59" depart="283.20" type="passenger">
    <route edges="135488883#0 780611992 135489025 1177245709 135488882#0 780210981#0 780210980 137366598#0 135623338#0 771688494#0 771692031#0" />
  </vehicle>
  <vehicle id="i1_143" depart="286.00" type="passenger">
    <route edges="771754621 771731732 1159554013#0 135488882#0 780210981#0 780210980 137366598#0 771702976#0" />
  </vehicle>
  <vehicle id="i1_145" depart="290.00" type="truck">
    <route edges="771754621 771731732 1159554013#0 135488882#0 780210981#0 780210980 137366598#0 135623338#0 135623552#0" />
  </vehicle>
  <vehicle id="i1_147" depart="294.00" type="passenger">
    <route edges="318479152#0 771692031#0 831791125#0 585291309#0 771693399 771714814 24585853 771736795 604773906" />
  </vehicle>
  <vehicle id="i1_151" depart="302.00" type="truck">
    <route edges="771754621 771731732 1159554013#0 135488882#0 780210981#0 780210980 137366598#0" />
  </vehicle>
  <vehicle id="f1_63" depart="302.40" type="truck">