<?xml version='1.0' encoding='utf-8'?>
<routes xmlns:xsi="http://www.w3.org/2001/XMLSchema-instance" xsi:noNamespaceSchemaLocation="http://sumo.dlr.de/xsd/routes_file.xsd">
  <vType id="passenger" vClass="passenger" length="4.5" accel="2.6" decel="4.5" sigma="0.5" maxSpeed="15.0" color="0,1,1" />
  <vType id="motorcycle" vClass="motorcycle" length="2.0" accel="3.5" decel="5.0" sigma="0.7" maxSpeed="20.0" minGap="1.0" color="0,1,0" />
  <vType id="truck" vClass="truck" length="10.0" accel="1.0" decel="2.5" sigma="0.4" maxSpeed="10.0" minGap="3.5" color="0,0,1" />
  <vType id="bus" vClass="bus" length="12.0" accel="1.2" decel="3.0" sigma="0.4" maxSpeed="12.0" minGap="3.0" color="1,0,0" />
  <vehicle id="i1_0" depart="0.00" type="passenger">
    <route edges="771731732 1159554013#0 135488882#0 780210981#0 780210980 28215290#0 436198228#0" />
  </vehicle>
  <vehicle id="f1_0" depart="0.00" type="passenger">
    <route edges="135488883#0 780611992 135489025 1177245709 135488882#0" />
  </vehicle>
  <vehicle id="i1_1" depart="2.50" type="passenger">
    <route edges="771702976#0 23768622#0 807042703#0 780002168#0 780002167 137366601#0 28215294#0 771693399 771714814 24585853 771736795 604773906" />
  </vehicle>
  <vehicle id="i1_2" depart="5.00" type="passenger">
    <route edges="771754621 771731732 1159554013#0 135488882#0 780210981#0 780210980 137366598#0 135623338#0 771688494#0 135623660#0" />
  </vehicle>
  <vehicle id="i1_3" depart="7.50" type="motorcycle">
    <route edges="771754621 771731732 1159554013#0 135488882#0 780210981#0 780210980" />
  </vehicle>
  <vehicle id="f1_1" depart="8.00" type="passenger">
    <route edges="135488883#0 780611992 135489025 1177245709 135488882#0 780210981#0 780210980 137366598#0 135623338#0 771688494#0 771692031#0 831791125#0 773857905 318479149#0" />
  </vehicle>
  <vehicle id="i1_4" depart="10.00" type="motorcycle">
    <route edges="135623338#0 771688494#0 771692031#0 831791125#0 585291309#0 771693399 771714814 24585853 771736795 604773906" />
  </vehicle>
  <vehicle id="i1_5" depart="12.50" type="passenger">
    <route edges="780002168#0 780002167 137366601#0 28215294#0 771693399 771714814 24585853 771736795 604773906" />
  </vehicle>
  <vehicle id="i1_6" depart="15.00" type="passenger">
    <route edges="1177245703 1177245706 771714812#0 23768614 E1 744281459#0 771698634#0 771698634#0.34 771702976#0 23768622#0 436198228#0" />
  </vehicle>
  <vehicle id="f1_2" depart="16.00" type="passenger">
    <route edges="135488883#0 780611992 135489025 1177245709 135488882#0 780210981#0 780210980 137366598#0 135623338#0 771688494#0 771692031#0 831791125#0 585291309#0 771693399 24577040 771714812#0 23768614 E1 744281459#0" />
  </vehicle>
  <vehicle id="i1_7" depart="17.50" type="passenger">
    <route edges="137366598#0 135623338#0 771688494#0 771692031#0 831791125#0 585291309#0 771693399 771714814 24585853 771736795 604773906" />
  </vehicle>
  <vehicle id="i1_8" depart="20.00" type="passenger">
    <route edges="318479152#0 771692031#0 831791125#0 585291309#0 771693399 771714814 24585853 771736795 604773906" />
  </vehicle>
  <vehicle id="i1_9" depart="22.50" type="passenger">
    <route edges="771754621 771731732 1159554013#0 135488882#0 780210981#0 780210980 137366598#0 771702976#0 23768622#0" />
  </vehicle>
  <vehicle id="f1_3" depart="24.00" type="passenger">
    <route edges="135488883#0 780611992 135489025 1177245709 135488882#0 780210981#0 780210980 137366598#0 135623338#0 771688494#0 771692031#0 831791125#0 773857905 318479149#0" />
  </vehicle>
  <vehicle id="i1_10" depart="25.00" type="passenger">
    <route edges="771754621 771731732 1159554013#0 135488882#0 780210981#0 780210980 137366598#0" />
  </vehicle>
  <vehicle id="i1_11" depart="27.50" type="passenger">
    <route edges="780002167 137366601#0 28215294#0 771693399 771714814 24585853 771736795 604773906" />
  </vehicle>
  <vehicle id="i1_12" depart="30.00" type="passenger">
    <route edges="771754621 1177245703 1177245706 771714812#0 23768614 E1 744281459#0 771698634#0 771698634#0.34" />
  </vehicle>
  <vehicle id="f1_4" depart="32.00" type="passenger">
    <route edges="135488883#0 780611992 135489025 1177245709 135488882#0" />
  </vehicle>
  <vehicle id="i1_13" depart="32.50" type="motorcycle">
    <route edges="435677131#0 771688494#0 771692031#0 831791125#0 585291309#0 771693399 771714814 24585853 771736795 604773906" />
  </vehicle>
  <vehicle id="i1_14" depart="35.00" type="passenger">
    <route edges="771702976#0 23768622#0 807042703#0 780002168#0 780002167 137366601#0 28215294#0 771693399 771714814 24585853 771736795 604773906" />
  </vehicle>
  <vehicle id="i1_15" depart="37.50" type="motorcycle">
    <route edges="771754621 1177245703 1177245706 771714812#0 23768614 E1 744281459#0 771698634#0" />
  </vehicle>
  <vehicle id="i1_16" depart="40.00" type="passenger">
    <route edges="771754621 771731732 1159554013#0 135488882#0 780210981#0 780210980 137366598#0 771702976#0 23768622#0 807042703#0 780002168#0" />
  </vehicle>
  <vehicle id="i1_17" depart="42.50" type="passenger">
    <route edges="137366604#0 807042703#0 780002168#0 780002167 137366601#0 28215294#0 771693399 771714814 24585853 771736795 24585832#0" />
  </vehicle>
  <vehicle id="i1_18" depart="45.00" type="passenger">
    <route edges="771692031#0 831791125#0 585291309#0 771693399 771714814 24585853 771736795 604773906" />
  </vehicle>
  <vehicle id="i1_19" depart="47.50" type="truck">
    <route edges="23768622#0 807042703#0 780002168#0 780002167 137366601#0 28215294#0 771693399 771714814 24585853 771736795 604773906" />
  </vehicle>
  <vehicle id="f1_6" depart="48.00" type="passenger">
    <route edges="135488883#0 780611992 135489025 1177245709 135488882#0 780210981#0 780210980 137366598#0 135623338#0 771688494#0 771692031#0 831791125#0 585291309#0 771693399 771714814 24585853" />
  </vehicle>
  <vehicle id="i1_20" depart="50.00" type="passenger">
    <route edges="137366604#0 807042703#0 780002168#0 780002167 137366601#0 28215294#0 771693399 771714814 24585853 771736795 604773906" />
  </vehicle>
  <vehicle id="i1_21" depart="52.50" type="passenger">
    <route edges="771754621 771731732 1159554013#0 135488882#0 780210981#0 780210980 137366598#0 771702976#0 23768622#0 807042703#0" />
  </vehicle>
  <vehicle id="i1_22" depart="55.00" type="motorcycle">
    <route edges="771692031#0 831791125#0 585291309#0 771693399 771714814 24585853 771736795 604773906" />
  </vehicle>
  <vehicle id="i1_23" depart="57.50" type="passenger">
    <route edges="771754621 771731732 1159554013#0 135488882#0 780210981#0 780210980 137366598#0 135623338#0 771688494#0 135623660#0" />
  </vehicle>
  <vehicle id="i1_24" depart="60.00" type="motorcycle">
    <route edges="780002167 137366601#0 28215294#0 771693399 771714814 24585853 771736795 604773906" />
  </vehicle>
  <vehicle id="i1_25" depart="62.50" type="motorcycle">
    <route edges="435677131#0 771688494#0 771692031#0 831791125#0 585291309#0 771693399 771714814 24585853 771736795 604773906" />
  </vehicle>
  <vehicle id="f1_8" depart="64.00" type="passenger">
    <route edges="135488883#0 780611992 135489025 1177245709 135488882#0 780210981#0 780210980 137366598#0 135623338#0 771688494#0 771692031#0 831791125#0 585291309#0 771693399 24577040 771714812#0" />
  </vehicle>
  <vehicle id="i1_26" depart="65.00" type="bus">
    <route edges="318479152#0 771692031#0 831791125#0 585291309#0 771693399 771714814 24585853 771736795 604773906" />
  </vehicle>
  <vehicle id="i1_27" depart="67.50" type="passenger">
    <route edges="771754621 771731732 1159554013#0 135488882#0 780210981#0 780210980 28215290#0 771782259#0" />
  </vehicle>
  <vehicle id="i1_28" depart="70.00" type="passenger">
    <route edges="771754621 771731732 1159554013#0 135488882#0 780210981#0 780210980" />
  </vehicle>
  <vehicle id="f1_9" depart="72.00" type="motorcycle">
    <route edges="135488883#0 23768613 1177245702" />
  </vehicle>
  <vehicle id="i1_29" depart="72.50" type="passenger">
    <route edges="771754621 771731732 1159554013#0 135488882#0 780210981#0 780210980 137366598#0 771702976#0 504344458" />
  </vehicle>
  <vehicle id="i1_30" depart="75.00" type="motorcycle">
    <route edges="435677131#0 771688494#0 771692031#0 831791125#0 585291309#0 771693399 771714814 24585853 771736795 24585832#0" />
  </vehicle>
  <vehicle id="i1_31" depart="77.50" type="passenger">
    <route edges="771754621 771731732 1159554013#0 135488882#0 780210981#0 780210980 137366598#0 135623338#0 771688494#0 135623660#0" />
  </vehicle>
  <vehicle id="i1_32" depart="80.00" type="motorcycle">
    <route edges="771731732 1159554013#0 135488882#0 780210981#0 780210980 28215290#0 436198228#0" />
  </vehicle>
  <vehicle id="f1_10" depart="80.00" type="passenger">
    <route edges="135488883#0 780611992 135489025 1177245709 135488882#0 780210981#0 780210980 137366598#0 135623338#0 771688494#0 771692031#0 831791125#0 585291309#0 771693399 24577040 771714812#0 23768614 E1" />
  </vehicle>
  <vehicle id="i1_33" depart="82.50" type="passenger">
    <route edges="771754621 771731732 1159554013#0 135488882#0 780210981#0 780210980 137366598#0" />
  </vehicle>
  <vehicle id="i1_34" depart="85.00" type="passenger">
    <route edges="135623338#0 771688494#0 771692031#0 831791125#0 585291309#0 771693399 771714814 24585853 771736795 604773906" />
  </vehicle>
  <vehicle id="i1_35" depart="87.50" type="passenger">
    <route edges="771754621 771731732 1159554013#0 135488882#0 780210981#0 780210980 28215290#0" />
  </vehicle>
  <vehicle id="f1_11" depart="88.00" type="passenger">
    <route edges="135488883#0 780611992 135489025 1177245709 135488882#0 780210981#0 780210980 137366598#0 135623338#0 771688494#0 771692031#0 831791125#0" />
  </vehicle>
  <vehicle id="i1_36" depart="90.00" type="passenger">
    <route edges="771698634#0.34 135623338#0 771688494#0 771692031#0 831791125#0 585291309#0 771693399 771714814 24585853 771736795 604773906" />
  </vehicle>
  <vehicle id="i1_37" depart="92.50" type="passenger">
    <route edges="771731732 1159554013#0 135488882#0 780210981#0 780210980 28215290#0 436198228#0" />
  </vehicle>
  <vehicle id="i1_38" depart="95.00" type="passenger">
    <route edges="771754621 771731732 1159554013#0 135488882#0 780210981#0 780210980 28215290#0" />
  </vehicle>
  <vehicle id="f1_12" depart="96.00" type="passenger">
    <route edges="135488883#0 780611992 135489025 1177245709 135488882#0" />
  </vehicle>
  <vehicle id="i1_39" depart="97.50" type="passenger">
    <route edges="318479152#0 771692031#0 831791125#0 585291309#0 771693399 771714814 24585853 771736795 604773906" />
  </vehicle>
  <vehicle id="i1_40" depart="100.00" type="passenger">
    <route edges="771754621 771731732 1159554013#0 135488882#0 780210981#0 780210980 137366598#0 771702976#0 23768622#0 807042703#0" />
  </vehicle>
  <vehicle id="i1_41" depart="102.50" type="passenger">
    <route edges="771692031#0 831791125#0 585291309#0 771693399 771714814 24585853 771736795 604773906" />
  </vehicle>
  <vehicle id="f1_13" depart="104.00" type="truck">
    <route edges="135488883#0 780611992 135489025 1177245709 135488882#0 780210981#0 780210980 137366598#0 135623338#0 771688494#0 771692031#0 831791125#0 773857905" />
  </vehicle>
  <vehicle id="i1_42" depart="105.00" type="passenger">
    <route edges="137366604#0 807042703#0 780002168#0 780002167 137366601#0 28215294#0 771693399 771714814 24585853 771736795 24585832#0" />
  </vehicle>
  <vehicle id="i1_43" depart="107.50" type="passenger">
    <route edges="137366604#0 807042703#0 780002168#0 780002167 137366601#0 28215294#0 771693399 771714814 24585853 771736795 604773906" />
  </vehicle>
  <vehicle id="i1_44" depart="110.00" type="passenger">
    <route edges="23768622#0 807042703#0 780002168#0 780002167 137366601#0 28215294#0 771693399 771714814 24585853 771736795 604773906" />
  </vehicle>
  <vehicle id="i1_45" depart="112.50" type="motorcycle">
    <route edges="137366604#0 807042703#0 780002168#0 780002167 137366601#0 28215294#0 771693399 771714814 24585853 771736795 24585832#0" />
  </vehicle>
  <vehicle id="i1_46" depart="115.00" type="passenger">
    <route edges="771754621 771731732 1159554013#0 135488882#0 780210981#0 780210980 137366598#0 771702976#0" />
  </vehicle>
  <vehicle id="i1_47" depart="117.50" type="passenger">
    <route edges="807042703#0 780002168#0 780002167 137366601#0 28215294#0 771693399 771714814 24585853 771736795 604773906" />
  </vehicle>
  <vehicle id="i1_48" depart="120.00" type="bus">
    <route edges="771702976#0 23768622#0 807042703#0 780002168#0 780002167 137366601#0 28215294#0 771693399 771714814 24585853 771736795 604773906" />
  </vehicle>
  <vehicle id="i1_49" depart="122.50" type="passenger">
    <route edges="771754621 771731732 1159554013#0 135488882#0 780210981#0 780210980 28215290#0 436198228#0" />
  </vehicle>
  <vehicle id="i1_50" depart="125.00" type="passenger">
    <route edges="771754621 771731732 1159554013#0 135488882#0 780210981#0 780210980" />
  </vehicle>
  <vehicle id="i1_51" depart="127.50" type="passenger">
    <route edges="771754621 1177245703 1177245706 771714812#0 23768614 E1 744281459#0 771698634#0 771698634#0.34" />
  </vehicle>
  <vehicle id="f1_16" depart="128.00" type="motorcycle">
    <route edges="135488883#0 780611992 135489025 1177245709 135488882#0 780210981#0 780210980 137366598#0 135623338#0 771688494#0 135623660#0" />
  </vehicle>
  <vehicle id="i1_52" depart="130.00" type="motorcycle">
    <route edges="771754621 771731732 1159554013#0 135488882#0 780210981#0 780210980 137366598#0 135623338#0 135623552#0" />
  </vehicle>
  <vehicle id="i1_53" depart="132.50" type="passenger">
    <route edges="771754621 771731732 1159554013#0 135488882#0 780210981#0 780210980 137366598#0 771702976#0 504344458" />
  </vehicle>
  <vehicle id="i1_54" depart="135.00" type="passenger">
    <route edges="771702976#0 23768622#0 807042703#0 780002168#0 780002167 137366601#0 28215294#0 771693399 771714814 24585853 771736795 604773906" />
  </vehicle>
  <vehicle id="i1_55" depart="137.50" type="passenger">
    <route edges="1177245703 1177245706 771714812#0 23768614 E1 744281459#0 771698634#0 771698634#0.34 771702976#0 23768622#0 436198228#0" />
  </vehicle>
  <vehicle id="i1_56" depart="140.00" type="passenger">
    <route edges="780002168#0 780002167 137366601#0 28215294#0 771693399 771714814 24585853 771736795 604773906" />
  </vehicle>
  <vehicle id="i1_57" depart="142.50" type="passenger">
    <route edges="771754621 771731732 1159554013#0 135488882#0 780210981#0 780210980 137366598#0" />
  </vehicle>
  <vehicle id="f1_18" depart="144.00" type="truck">
    <route edges="135488883#0 780611992 135489025 1177245709 135488882#0 780210981#0 780210980" />
  </vehicle>
  <vehicle id="i1_58" depart="145.00" type="motorcycle">
    <route edges="771754621 1177245703 1177245706 771714812#0 23768614 E1 744281459#0 771698634#0 771698634#0.34" />
  </vehicle>
  <vehicle id="i1_59" depart="147.50" type="passenger">
    <route edges="771754621 771731732 1159554013#0 135488882#0 780210981#0 780210980 137366598#0 771702976#0 23768622#0 807042703#0 780002168#0" />
  </vehicle>
  <vehicle id="i1_60" depart="150.00" type="passenger">
    <route edges="435677131#0 771688494#0 771692031#0 831791125#0 585291309#0 771693399 771714814 24585853 771736795 604773906" />
  </vehicle>
  <vehicle id="i1_61" depart="152.50" type="passenger">
    <route edges="771702976#0 23768622#0 807042703#0 780002168#0 780002167 137366601#0 28215294#0 771693399 771714814 24585853 771736795 604773906" />
  </vehicle>
  <vehicle id="i1_62" depart="155.00" type="truck">
    <route edges="771702976#0 23768622#0 807042703#0 780002168#0 780002167 137366601#0 28215294#0 771693399 771714814 24585853 771736795 604773906" />
  </vehicle>
  <vehicle id="i1_63" depart="157.50" type="passenger">
    <route edges="771692031#0 831791125#0 585291309#0 771693399 771714814 24585853 771736795 604773906" />
  </vehicle>
  <vehicle id="i1_64" depart="160.00" type="passenger">
    <route edges="780002168#0 780002167 137366601#0 28215294#0 771693399 771714814 24585853 771736795 604773906" />
  </vehicle>
  <vehicle id="f1_20" depart="160.00" type="passenger">
    <route edges="135488883#0 780611992 135489025 1177245709 135488882#0 780210981#0 780210980 137366598#0 771702976#0 23768622#0 807042703#0 780002168#0 780002167 137366601#0 -318479149#2" />
  </vehicle>
  <vehicle id="i1_65" depart="162.50" type="passenger">
    <route edges="135623338#0 771688494#0 771692031#0 831791125#0 585291309#0 771693399 771714814 24585853 771736795 604773906" />
  </vehicle>
  <vehicle id="i1_66" depart="165.00" type="passenger">
    <route edges="1177245703 1177245706 771714812#0 23768614 E1 744281459#0 771698634#0 771698634#0.34 771702976#0 23768622#0 436198228#0" />
  </vehicle>
  <vehicle id="i1_67" depart="167.50" type="passenger">
    <route edges="771754621 771731732 1159554013#0 135488882#0 780210981#0 780210980 137366598#0 135623338#0" />
  </vehicle>
  <vehicle id="f1_21" depart="168.00" type="motorcycle">
    <route edges="135488883#0 780611992 135489025 1177245709 135488882#0 780210981#0 780210980 137366598#0 771702976#0 23768622#0 807042703#0 780002168#0 780002167 137366601#0 28215294#0" />
  </vehicle>
  <vehicle id="i1_68" depart="170.00" type="passenger">
    <route edges="771754621 771731732 1159554013#0 135488882#0 780210981#0 780210980 137366598#0 771702976#0 504344458" />
  </vehicle>
  <vehicle id="i1_69" depart="172.50" type="passenger">
    <route edges="771754621 1177245703 1177245706 771714812#0 135489026" />
  </vehicle>
  <vehicle id="i1_70" depart="175.00" type="bus">
    <route edges="137366604#0 807042703#0 780002168#0 780002167 137366601#0 28215294#0 771693399 771714814 24585853 771736795 604773906" />
  </vehicle>
  <vehicle id="f1_22" depart="176.00" type="passenger">
    <route edges="135488883#0 780611992 135489025 1177245709 135488882#0 780210981#0 780210980 137366598#0 135623338#0 771688494#0 771692031#0 831791125#0 585291309#0 771693399 24577040 771714812#0" />
  </vehicle>
  <vehicle id="i1_71" depart="177.50" type="passenger">
    <route edges="771754621 771731732 1159554013#0 135488882#0 780210981#0 780210980 137366598#0 771702976#0 23768622#0" />
  </vehicle>
  <vehicle id="i1_72" depart="180.00" type="passenger">
    <route edges="771754621 771731732 1159554013#0 135488882#0 780210981#0 780210980 137366598#0" />
  </vehicle>
  <vehicle id="i1_73" depart="182.50" type="passenger">
    <route edges="807042703#0 780002168#0 780002167 137366601#0 28215294#0 771693399 771714814 24585853 771736795 604773906" />
  </vehicle>
  <vehicle id="i1_74" depart="185.00" type="passenger">
    <route edges="135623338#0 771688494#0 771692031#0 831791125#0 585291309#0 771693399 771714814 24585853 771736795 604773906" />
  </vehicle>
  <vehicle id="i1_75" depart="187.50" type="motorcycle">
    <route edges="137366604#0 807042703#0 780002168#0 780002167 137366601#0 28215294#0 771693399 771714814 24585853 771736795 24585832#0" />
  </vehicle>
  <vehicle id="i1_76" depart="190.00" type="passenger">
    <route edges="771754621 771731732 1159554013#0 135488882#0 780210981#0 780210980 137366598#0 135623338#0 771688494#0" />
  </vehicle>
  <vehicle id="i1_77" depart="192.50" type="passenger">
    <route edges="771754621 771731732 1159554013#0 135488882#0 780210981#0 780210980 137366598#0 135623338#0 135623552#0" />
  </vehicle>
  <vehicle id="i1_78" depart="195.00" type="passenger">
    <route edges="771754621 771731732 1159554013#0 135488882#0 780210981#0 780210980 137366598#0 771702976#0 23768622#0 807042703#0" />
  </vehicle>
  <vehicle id="i1_79" depart="197.50" type="bus">
    <route edges="771754621 771731732 1159554013#0 135488882#0 780210981#0 780210980 137366598#0 771702976#0 23768622#0 807042703#0" />
  </vehicle>
  <vehicle id="i1_80" depart="200.00" type="passenger">
    <route edges="137366598#0 135623338#0 771688494#0 771692031#0 831791125#0 585291309#0 771693399 771714814 24585853 771736795 604773906" />
  </vehicle>
  <vehicle id="i1_81" depart="202.50" type="bus">
    <route edges="771754621 771731732 1159554013#0 135488882#0 780210981#0 780210980 137366598#0 135623338#0 771688494#0" />
  </vehicle>
  <vehicle id="i1_82" depart="205.00" type="motorcycle">
    <route edges="771754621 771731732 1159554013#0 135488882#0 780210981#0 780210980 28215290#0" />
  </vehicle>
  <vehicle id="i1_83" depart="207.50" type="passenger">
    <route edges="771754621 771731732 1159554013#0 135488882#0 780210981#0 780210980 137366598#0 771702976#0 23768622#0 807042703#0 780002168#0" />
  </vehicle>
  <vehicle id="f1_26" depart="208.00" type="motorcycle">
    <route edges="135488883#0 780611992 135489025 1177245709 135488882#0 780210981#0 780210980 137366598#0 135623338#0 771688494#0 771692031#0 831791125#0 773857905" />
  </vehicle>
  <vehicle id="i1_84" depart="210.00" type="passenger">
    <route edges="771754621 771731732 1159554013#0 135488882#0 780210981#0 780210980 137366598#0 771702976#0" />
  </vehicle>
  <vehicle id="i1_85" depart="212.50" type="passenger">
    <route edges="771754621 771731732 1159554013#0 135488882#0 780210981#0 780210980 137366598#0" />
  </vehicle>
  <vehicle id="i1_86" depart="215.00" type="passenger">
    <route edges="135623338#0 771688494#0 771692031#0 831791125#0 585291309#0 771693399 771714814 24585853 771736795 604773906" />
  </vehicle>
  <vehicle id="f1_27" depart="216.00" type="passenger">
    <route edges="135488883#0 780611992 135489025 1177245709 135488882#0 780210981#0 780210980 137366598#0 135623338#0 771688494#0 771692031#0 771698634#0" />
  </vehicle>
  <vehicle id="i1_87" depart="217.50" type="passenger">
    <route edges="771754621 771731732 1159554013#0 135488882#0 780210981#0 780210980 137366598#0 135623338#0 771688494#0" />
  </vehicle>
  <vehicle id="i1_88" depart="220.00" type="passenger">
    <route edges="771754621 771731732 1159554013#0 135488882#0 780210981#0 780210980 137366598#0 771702976#0 23768622#0 807042703#0" />
  </vehicle>
  <vehicle id="i1_89" depart="222.50" type="passenger">
    <route edges="771754621 771731732 1159554013#0 135488882#0 780210981#0 780210980 28215290#0 771782259#0" />
  </vehicle>
  <vehicle id="i1_90" depart="225.00" type="truck">
    <route edges="771702976#0 23768622#0 807042703#0 780002168#0 780002167 137366601#0 28215294#0 771693399 771714814 24585853 771736795 604773906" />
  </vehicle>
  <vehicle id="i1_91" depart="227.50" type="motorcycle">
    <route edges="771754621 1177245703 1177245706 771714812#0 23768614 E1 744281459#0 831791125#0 773857905 E0" />
  </vehicle>
  <vehicle id="i1_92" depart="230.00" type="passenger">
    <route edges="771754621 771731732 1159554013#0 135488882#0 780210981#0 780210980 137366598#0 135623338#0" />
  </vehicle>
  <vehicle id="f1_29" depart="232.00" type="passenger">
    <route edges="135488883#0 780611992 135489025 1177245709 135488882#0 780210981#0 780210980 137366598#0 135623338#0 771688494#0 771692031#0 831791125#0 773857905 318479149#0" />
  </vehicle>
  <vehicle id="i1_93" depart="232.50" type="passenger">
    <route edges="771754621 771731732 1159554013#0 135488882#0 780210981#0 780210980 28215290#0 436198228#0" />
  </vehicle>
  <vehicle id="i1_94" depart="235.00" type="truck">
    <route edges="771754621 1177245703 1177245706 771714812#0 23768614 E1 744281459#0 771698634#0" />
  </vehicle>
  <vehicle id="i1_95" depart="237.50" type="motorcycle">
    <route edges="771754621 771731732 1159554013#0 135488882#0 780210981#0 780210980 28215290#0 771782259#0" />
  </vehicle>
  <vehicle id="i1_96" depart="240.00" type="passenger">
    <route edges="23768622#0 807042703#0 780002168#0 780002167 137366601#0 28215294#0 771693399 771714814 24585853 771736795 604773906" />
  </vehicle>
  <vehicle id="f1_30" depart="240.00" type="passenger">
    <route edges="135488883#0 780611992 135489025 1177245709 135488882#0 780210981#0 780210980 137366598#0 771702976#0 504344458" />
  </vehicle>
  <vehicle id="i1_97" depart="242.50" type="passenger">
    <route edges="771754621 771731732 1159554013#0 135488882#0 780210981#0 780210980 28215290#0 771782259#0" />
  </vehicle>
  <vehicle id="i1_98" depart="245.00" type="passenger">
    <route edges="135623338#0 771688494#0 771692031#0 831791125#0 585291309#0 771693399 771714814 24585853 771736795 604773906" />
  </vehicle>
  <vehicle id="i1_99" depart="247.50" type="motorcycle">
    <route edges="771754621 771731732 1159554013#0 135488882#0 780210981#0 780210980 137366598#0 135623338#0 771688494#0" />
  </vehicle>
  <vehicle id="f1_31" depart="248.00" type="passenger">
    <route edges="135488883#0 780611992 135489025 1177245709 135488882#0 780210981#0 780210980 137366598#0 771702976#0 23768622#0 807042703#0 780002168#0 780002167 137366601#0 -318479149#2" />
  </vehicle>
  <vehicle id="i1_100" depart="250.00" type="motorcycle">
    <route edges="780002167 137366601#0 28215294#0 771693399 771714814 24585853 771736795 604773906" />
  </vehicle>
  <vehicle id="i1_101" depart="252.50" type="passenger">
    <route edges="23768622#0 807042703#0 780002168#0 780002167 137366601#0 28215294#0 771693399 771714814 24585853 771736795 604773906" />
  </vehicle>
  <vehicle id="i1_102" depart="255.00" type="passenger">
    <route edges="137366598#0 135623338#0 771688494#0 771692031#0 831791125#0 585291309#0 771693399 771714814 24585853 771736795 604773906" />
  </vehicle>
  <vehicle id="i1_103" depart="257.50" type="passenger">
    <route edges="807042703#0 780002168#0 780002167 137366601#0 28215294#0 771693399 771714814 24585853 771736795 604773906" />
  </vehicle>
  <vehicle id="i1_104" depart="260.00" type="passenger">
    <route edges="135623338#0 771688494#0 771692031#0 831791125#0 585291309#0 771693399 771714814 24585853 771736795 604773906" />
  </vehicle>
  <vehicle id="i1_105" depart="262.50" type="truck">
    <route edges="771754621 1177245703 1177245706 771714812#0 135489026" />
  </vehicle>
  <vehicle id="i1_106" depart="265.00" type="motorcycle">
    <route edges="780002167 137366601#0 28215294#0 771693399 771714814 24585853 771736795 604773906" />
  </vehicle>
  <vehicle id="i1_107" depart="267.50" type="motorcycle">
    <route edges="435677131#0 771688494#0 771692031#0 831791125#0 585291309#0 771693399 771714814 24585853 771736795 24585832#0" />
  </vehicle>
  <vehicle id="i1_108" depart="270.00" type="passenger">
    <route edges="771754621 771731732 1159554013#0 135488882#0 780210981#0 780210980 28215290#0" />
  </vehicle>
  <vehicle id="f1_34" depart="272.00" type="passenger">
    <route edges="135488883#0 780611992 135489025 1177245709 135488882#0 780210981#0 780210980 137366598#0 135623338#0 771688494#0 771692031#0 831791125#0 585291309#0 771693399 24577040 771714812#0 23768614 E1" />
  </vehicle>
  <vehicle id="i1_109" depart="272.50" type="motorcycle">
    <route edges="771754621 771731732 1159554013#0 135488882#0 780210981#0 780210980 137366598#0 771702976#0 23768622#0 807042703#0" />
  </vehicle>
  <vehicle id="i1_110" depart="275.00" type="truck">
    <route edges="771754621 771731732 1159554013#0 135488882#0 780210981#0 780210980 137366598#0 771702976#0 504344458" />
  </vehicle>
  <vehicle id="i1_111" depart="277.50" type="passenger">
    <route edges="771688494#0 771692031#0 831791125#0 585291309#0 771693399 771714814 24585853 771736795 604773906" />
  </vehicle>
  <vehicle id="i1_112" depart="280.00" type="passenger">
    <route edges="771702976#0 23768622#0 807042703#0 780002168#0 780002167 137366601#0 28215294#0 771693399 771714814 24585853 771736795 604773906" />
  </vehicle>
  <vehicle id="f1_35" depart="280.00" type="passenger">
    <route edges="135488883#0 780611992 135489025 1177245709 135488882#0 780210981#0 780210980 137366598#0 135623338#0 771688494#0 771692031#0 831791125#0 585291309#0 771693399 24577040 771714812#0 23768614" />
  </vehicle>
  <vehicle id="i1_113" depart="282.50" type="motorcycle">
    <route edges="771754621 771731732 1159554013#0 135488882#0 780210981#0 780210980 137366598#0" />
  </vehicle>
  <vehicle id="i1_114" depart="285.00" type="motorcycle">
    <route edges="771754621 771731732 1159554013#0 135488882#0 780210981#0 780210980 137366598#0 135623338#0 771688494#0" />
  </vehicle>
  <vehicle id="i1_115" depart="287.50" type="passenger">
    <route edges="771754621 771731732 1159554013#0 135488882#0 780210981#0 780210980 137366598#0 135623338#0 135623552#0" />
  </vehicle>
  <vehicle id="f1_36" depart="288.00" type="passenger">
    <route edges="135488883#0 23768613 1177245702" />
  </vehicle>
  <vehicle id="i1_116" depart="290.00" type="passenger">
    <route edges="771754621 771731732 1159554013#0 135488882#0 780210981#0 780210980" />
  </vehicle>
  <vehicle id="i1_117" depart="292.50" type="passenger">
    <route edges="137366604#0 807042703#0 780002168#0 780002167 137366601#0 28215294#0 771693399 771714814 24585853 771736795 604773906" />
  </vehicle>
  <vehicle id="i1_118" depart="295.00" type="motorcycle">
    <route edges="771754621 771731732 1159554013#0 135488882#0 780210981#0 780210980 137366598#0 135623338#0 771688494#0 135623660#0" />
  </vehicle>
  <vehicle id="f1_37" depart="296.00" type="passenger">
    <route edges="135488883#0 780611992 135489025 1177245709 135488882#0 318479147#0" />
  </vehicle>
  <vehicle id="i1_119" depart="297.50" type="passenger">
    <route edges="771754621 771731732 1159554013#0 135488882#0 780210981#0 780210980 137366598#0 771702976#0 504344458" />
  </vehicle>
  <vehicle id="i1_120" depart="300.00" type="passenger">
    <route edges="771754621 771731732 1159554013#0 135488882#0 780210981#0 780210980 137366598#0 135623338#0 771688494#0 135623660#0" />
  </vehicle>
  <vehicle id="i1_121" depart="302.50" type="motorcycle">
    <route edges="435677131#0 771688494#0 771692031#0 831791125#0 585291309#0 771693399 771714814 24585853 771736795 604773906" />
  </vehicle>
  <vehicle id="f1_38" depart="304.00" type="passenger">