<?xml version='1.0' encoding='utf-8'?>
<routes xmlns:xsi="http://www.w3.org/2001/XMLSchema-instance" xsi:noNamespaceSchemaLocation="http://sumo.dlr.de/xsd/routes_file.xsd">
  <vType id="passenger" vClass="passenger" length="4.5" accel="2.6" decel="4.5" sigma="0.5" maxSpeed="15.0" color="0,1,1" />
  <vType id="motorcycle" vClass="motorcycle" length="2.0" accel="3.5" decel="5.0" sigma="0.7" maxSpeed="20.0" minGap="1.0" color="0,1,0" />
  <vType id="truck" vClass="truck" length="10.0" accel="1.0" decel="2.5" sigma="0.4" maxSpeed="10.0" minGap="3.5" color="0,0,1" />
  <vType id="bus" vClass="bus" length="12.0" accel="1.2" decel="3.0" sigma="0.4" maxSpeed="12.0" minGap="3.0" color="1,0,0" />
  <vehicle id="i1_0" depart="0.00" type="passenger">
    <route edges="771731732 1159554013#0 135488882#0 780210981#0 780210980 28215290#0 436198228#0" />
  </vehicle>
  <vehicle id="f1_0" depart="0.00" type="passenger">
    <route edges="135488883#0 780611992 135489025 1177245709 135488882#0 780210981#0 780210980 137366598#0 135623338#0 771688494#0 771692031#0 831791125#0 773857905 E0" />
  </vehicle>
  <vehicle id="i1_1" depart="2.22" type="passenger">
    <route edges="771702976#0 23768622#0 807042703#0 780002168#0 780002167 137366601#0 28215294#0 771693399 771714814 24585853 771736795 604773906" />
  </vehicle>
  <vehicle id="i1_2" depart="4.44" type="passenger">
    <route edges="771754621 771731732 1159554013#0 135488882#0 780210981#0 780210980 137366598#0 135623338#0 771688494#0 135623660#0" />
  </vehicle>
  <vehicle id="f1_1" depart="6.00" type="motorcycle">
    <route edges="135488883#0 780611992 135489025 1177245709 135488882#0 780210981#0 780210980 28215290#0 436198228#0" />
  </vehicle>
  <vehicle id="i1_3" depart="6.67" type="passenger">
    <route edges="771754621 771731732 1159554013#0 135488882#0 780210981#0 780210980" />
  </vehicle>
  <vehicle id="i1_4" depart="8.89" type="motorcycle">
    <route edges="135623338#0 771688494#0 771692031#0 831791125#0 585291309#0 771693399 771714814 24585853 771736795 604773906" />
  </vehicle>
  <vehicle id="i1_5" depart="11.11" type="passenger">
    <route edges="780002168#0 780002167 137366601#0 28215294#0 771693399 771714814 24585853 771736795 604773906" />
  </vehicle>
  <vehicle id="f1_2" depart="12.00" type="passenger">
    <route edges="135488883#0 780611992 135489025 1177245709 135488882#0 780210981#0 780210980 137366598#0 135623338#0 771688494#0 771692031#0 831791125#0 773857905" />
  </vehicle>
  <vehicle id="i1_6" depart="13.33" type="passenger">
    <route edges="1177245703 1177245706 771714812#0 23768614 E1 744281459#0 771698634#0 771698634#0.34 771702976#0 23768622#0 436198228#0" />
  </vehicle>
  <vehicle id="i1_7" depart="15.56" type="passenger">
    <route edges="137366598#0 135623338#0 771688494#0 771692031#0 831791125#0 585291309#0 771693399 771714814 24585853 771736795 604773906" />
  </vehicle>
  <vehicle id="i1_8" depart="17.78" type="passenger">
    <route edges="318479152#0 771692031#0 831791125#0 585291309#0 771693399 771714814 24585853 771736795 604773906" />
  </vehicle>
  <vehicle id="f1_3" depart="18.00" type="passenger">
    <route edges="135488883#0 780611992 135489025 1177245709 135488882#0 780210981#0 780210980 137366598#0" />
  </vehicle>
  <vehicle id="i1_9" depart="20.00" type="passenger">
    <route edges="771754621 771731732 1159554013#0 135488882#0 780210981#0 780210980 137366598#0 771702976#0 23768622#0" />
  </vehicle>
  <vehicle id="i1_10" depart="22.22" type="passenger">
    <route edges="771754621 771731732 1159554013#0 135488882#0 780210981#0 780210980 137366598#0" />
  </vehicle>
  <vehicle id="i1_11" depart="24.44" type="passenger">
    <route edges="780002167 137366601#0 28215294#0 771693399 771714814 24585853 771736795 604773906" />
  </vehicle>
  <vehicle id="i1_12" depart="26.67" type="passenger">
    <route edges="771754621 1177245703 1177245706 771714812#0 23768614 E1 744281459#0 771698634#0 771698634#0.34" />
  </vehicle>
  <vehicle id="i1_13" depart="28.89" type="passenger">
    <route edges="435677131#0 771688494#0 771692031#0 831791125#0 585291309#0 771693399 771714814 24585853 771736795 604773906" />
  </vehicle>
  <vehicle id="f1_5" depart="30.00" type="motorcycle">
    <route edges="135488883#0 780611992 135489025 1177245709 135488882#0 780210981#0 780210980 137366598#0 771702976#0 23768622#0" />
  </vehicle>
  <vehicle id="i1_14" depart="31.11" type="passenger">
    <route edges="771702976#0 23768622#0 807042703#0 780002168#0 780002167 137366601#0 28215294#0 771693399 771714814 24585853 771736795 604773906" />
  </vehicle>
  <vehicle id="i1_15" depart="33.33" type="motorcycle">
    <route edges="771754621 1177245703 1177245706 771714812#0 23768614 E1 744281459#0 771698634#0" />
  </vehicle>
  <vehicle id="i1_16" depart="35.56" type="passenger">
    <route edges="771754621 771731732 1159554013#0 135488882#0 780210981#0 780210980 137366598#0 771702976#0 23768622#0 807042703#0 780002168#0" />
  </vehicle>
  <vehicle id="f1_6" depart="36.00" type="passenger">
    <route edges="135488883#0 780611992 135489025" />
  </vehicle>
  <vehicle id="i1_17" depart="37.78" type="passenger">
    <route edges="137366604#0 807042703#0 780002168#0 780002167 137366601#0 28215294#0 771693399 771714814 24585853 771736795 24585832#0" />
  </vehicle>
  <vehicle id="i1_18" depart="40.00" type="truck">
    <route edges="771692031#0 831791125#0 585291309#0 771693399 771714814 24585853 771736795 604773906" />
  </vehicle>
  <vehicle id="i1_19" depart="42.22" type="passenger">
    <route edges="23768622#0 807042703#0 780002168#0 780002167 137366601#0 28215294#0 771693399 771714814 24585853 771736795 604773906" />
  </vehicle>
  <vehicle id="i1_20" depart="44.44" type="passenger">
    <route edges="137366604#0 807042703#0 780002168#0 780002167 137366601#0 28215294#0 771693399 771714814 24585853 771736795 604773906" />
  </vehicle>
  <vehicle id="i1_21" depart="46.67" type="passenger">
    <route edges="771754621 771731732 1159554013#0 135488882#0 780210981#0 780210980 137366598#0 771702976#0 23768622#0 807042703#0" />
  </vehicle>
  <vehicle id="f1_8" depart="48.00" type="motorcycle">
    <route edges="135488883#0 780611992 135489025 1177245709 135488882#0 780210981#0 780210980 137366598#0 771702976#0 23768622#0 807042703#0 780002168#0 780002167 137366601#0 -318479149#2" />
  </vehicle>
  <vehicle id="i1_22" depart="48.89" type="passenger">
    <route edges="771692031#0 831791125#0 585291309#0 771693399 771714814 24585853 771736795 604773906" />
  </vehicle>
  <vehicle id="i1_23" depart="51.11" type="motorcycle">
    <route edges="771754621 771731732 1159554013#0 135488882#0 780210981#0 780210980 137366598#0 135623338#0 771688494#0 135623660#0" />
  </vehicle>
  <vehicle id="i1_24" depart="53.33" type="motorcycle">
    <route edges="780002167 137366601#0 28215294#0 771693399 771714814 24585853 771736795 604773906" />
  </vehicle>
  <vehicle id="i1_25" depart="55.56" type="passenger">
    <route edges="435677131#0 771688494#0 771692031#0 831791125#0 585291309#0 771693399 771714814 24585853 771736795 604773906" />
  </vehicle>
  <vehicle id="i1_26" depart="57.78" type="bus">
    <route edges="318479152#0 771692031#0 831791125#0 585291309#0 771693399 771714814 24585853 771736795 604773906" />
  </vehicle>
  <vehicle id="i1_27" depart="60.00" type="passenger">
    <route edges="771754621 771731732 1159554013#0 135488882#0 780210981#0 780210980 28215290#0 771782259#0" />
  </vehicle>
  <vehicle id="i1_28" depart="62.22" type="passenger">
    <route edges="771754621 771731732 1159554013#0 135488882#0 780210981#0 780210980" />
  </vehicle>
  <vehicle id="i1_29" depart="64.44" type="motorcycle">
    <route edges="771754621 771731732 1159554013#0 135488882#0 780210981#0 780210980 137366598#0 771702976#0 504344458" />
  </vehicle>
  <vehicle id="f1_11" depart="66.00" type="passenger">
    <route edges="135488883#0 780611992 135489025 1177245709 135488882#0 780210981#0 780210980 137366598#0 135623338#0 771688494#0 771692031#0" />
  </vehicle>
  <vehicle id="i1_30" depart="66.67" type="motorcycle">
    <route edges="435677131#0 771688494#0 771692031#0 831791125#0 585291309#0 771693399 771714814 24585853 771736795 24585832#0" />
  </vehicle>
  <vehicle id="i1_31" depart="68.89" type="passenger">
    <route edges="771754621 771731732 1159554013#0 135488882#0 780210981#0 780210980 137366598#0 135623338#0 771688494#0 135623660#0" />
  </vehicle>
  <vehicle id="i1_32" depart="71.11" type="motorcycle">
    <route edges="771731732 1159554013#0 135488882#0 780210981#0 780210980 28215290#0 436198228#0" />
  </vehicle>
  <vehicle id="f1_12" depart="72.00" type="passenger">
    <route edges="135488883#0 780611992 135489025 1177245709 135488882#0 780210981#0 780210980 137366598#0 771702976#0 23768622#0 807042703#0 780002168#0 780002167 137366601#0" />
  </vehicle>
  <vehicle id="i1_33" depart="73.33" type="passenger">
    <route edges="771754621 771731732 1159554013#0 135488882#0 780210981#0 780210980 137366598#0" />
  </vehicle>
  <vehicle id="i1_34" depart="75.56" type="passenger">
    <route edges="135623338#0 771688494#0 771692031#0 831791125#0 585291309#0 771693399 771714814 24585853 771736795 604773906" />
  </vehicle>
  <vehicle id="i1_35" depart="77.78" type="passenger">
    <route edges="771754621 771731732 1159554013#0 135488882#0 780210981#0 780210980 28215290#0" />
  </vehicle>
  <vehicle id="f1_13" depart="78.00" type="passenger">
    <route edges="135488883#0 780611992 135489025 1177245709 135488882#0 780210981#0 780210980 137366598#0 135623338#0 771688494#0 771692031#0 831791125#0 585291309#0 771693399 24577040 771714812#0 23768614 771698635#0" />
  </vehicle>
  <vehicle id="i1_36" depart="80.00" type="passenger">
    <route edges="771698634#0.34 135623338#0 771688494#0 771692031#0 831791125#0 585291309#0 771693399 771714814 24585853 771736795 604773906" />
  </vehicle>
  <vehicle id="i1_37" depart="82.22" type="passenger">
    <route edges="771731732 1159554013#0 135488882#0 780210981#0 780210980 28215290#0 436198228#0" />
  </vehicle>
  <vehicle id="f1_14" depart="84.00" type="passenger">
    <route edges="135488883#0 780611992 135489025 1177245709 135488882#0 780210981#0 780210980 137366598#0 135623338#0 771688494#0 771692031#0 831791125#0 585291309#0 771693399 24577040 771714812#0 23768614 E1" />
  </vehicle>
  <vehicle id="i1_38" depart="84.44" type="passenger">
    <route edges="771754621 771731732 1159554013#0 135488882#0 780210981#0 780210980 28215290#0" />
  </vehicle>
  <vehicle id="i1_39" depart="86.67" type="passenger">
    <route edges="318479152#0 771692031#0 831791125#0 585291309#0 771693399 771714814 24585853 771736795 604773906" />
  </vehicle>
  <vehicle id="i1_40" depart="88.89" type="passenger">
    <route edges="771754621 771731732 1159554013#0 135488882#0 780210981#0 780210980 137366598#0 771702976#0 23768622#0 807042703#0" />
  </vehicle>
  <vehicle id="f1_15" depart="90.00" type="passenger">
    <route edges="135488883#0 780611992 135489025 1177245709 135488882#0 780210981#0 780210980 137366598#0 771702976#0 23768622#0" />
  </vehicle>
  <vehicle id="i1_41" depart="91.11" type="truck">
    <route edges="771692031#0 831791125#0 585291309#0 771693399 771714814 24585853 771736795 604773906" />
  </vehicle>
  <vehicle id="i1_42" depart="93.33" type="passenger">
    <route edges="137366604#0 807042703#0 780002168#0 780002167 137366601#0 28215294#0 771693399 771714814 24585853 771736795 24585832#0" />
  </vehicle>
  <vehicle id="i1_43" depart="95.56" type="passenger">
    <route edges="137366604#0 807042703#0 780002168#0 780002167 137366601#0 28215294#0 771693399 771714814 24585853 771736795 604773906" />
  </vehicle>
  <vehicle id="f1_16" depart="96.00" type="passenger">
    <route edges="135488883#0 780611992 135489025 1177245709 135488882#0 780210981#0 780210980 28215290#0 436198228#0" />
  </vehicle>
  <vehicle id="i1_44" depart="97.78" type="motorcycle">
    <route edges="23768622#0 807042703#0 780002168#0 780002167 137366601#0 28215294#0 771693399 771714814 24585853 771736795 604773906" />
  </vehicle>
  <vehicle id="i1_45" depart="100.00" type="passenger">
    <route edges="137366604#0 807042703#0 780002168#0 780002167 137366601#0 28215294#0 771693399 771714814 24585853 771736795 24585832#0" />
  </vehicle>
  <vehicle id="f1_17" depart="102.00" type="passenger">
    <route edges="135488883#0 23768613 1177245702" />
  </vehicle>
  <vehicle id="i1_46" depart="102.22" type="bus">
    <route edges="771754621 771731732 1159554013#0 135488882#0 780210981#0 780210980 137366598#0 771702976#0" />
  </vehicle>
  <vehicle id="i1_47" depart="104.44" type="passenger">
    <route edges="807042703#0 780002168#0 780002167 137366601#0 28215294#0 771693399 771714814 24585853 771736795 604773906" />
  </vehicle>
  <vehicle id="i1_48" depart="106.67" type="passenger">
    <route edges="771702976#0 23768622#0 807042703#0 780002168#0 780002167 137366601#0 28215294#0 771693399 771714814 24585853 771736795 604773906" />
  </vehicle>
  <vehicle id="i1_49" depart="108.89" type="passenger">
    <route edges="771754621 771731732 1159554013#0 135488882#0 780210981#0 780210980 28215290#0 436198228#0" />
  </vehicle>
  <vehicle id="i1_50" depart="111.11" type="motorcycle">
    <route edges="771754621 771731732 1159554013#0 135488882#0 780210981#0 780210980" />
  </vehicle>
  <vehicle id="i1_51" depart="113.33" type="motorcycle">
    <route edges="771754621 1177245703 1177245706 771714812#0 23768614 E1 744281459#0 771698634#0 771698634#0.34" />
  </vehicle>
  <vehicle id="f1_19" depart="114.00" type="passenger">
    <route edges="135488883#0 780611992 135489025 1177245709 135488882#0 780210981#0 780210980 137366598#0 135623338#0 771688494#0 771692031#0" />
  </vehicle>
  <vehicle id="i1_52" depart="115.56" type="passenger">
    <route edges="771754621 771731732 1159554013#0 135488882#0 780210981#0 780210980 137366598#0 135623338#0 135623552#0" />
  </vehicle>
  <vehicle id="i1_53" depart="117.78" type="passenger">
    <route edges="771754621 771731732 1159554013#0 135488882#0 780210981#0 780210980 137366598#0 771702976#0 504344458" />
  </vehicle>
  <vehicle id="i1_54" depart="120.00" type="passenger">
    <route edges="771702976#0 23768622#0 807042703#0 780002168#0 780002167 137366601#0 28215294#0 771693399 771714814 24585853 771736795 604773906" />
  </vehicle>
  <vehicle id="f1_20" depart="120.00" type="passenger">
    <route edges="135488883#0 780611992 135489025 1177245709 135488882#0 780210981#0 780210980 137366598#0 771702976#0 23768622#0 807042703#0 780002168#0 780002167" />
  </vehicle>
  <vehicle id="i1_55" depart="122.22" type="truck">
    <route edges="1177245703 1177245706 771714812#0 23768614 E1 744281459#0 771698634#0 771698634#0.34 771702976#0 23768622#0 436198228#0" />
  </vehicle>
  <vehicle id="i1_56" depart="124.44" type="motorcycle">
    <route edges="780002168#0 780002167 137366601#0 28215294#0 771693399 771714814 24585853 771736795 604773906" />
  </vehicle>
  <vehicle id="f1_21" depart="126.00" type="passenger">
    <route edges="135488883#0 780611992 135489025 1177245709 135488882#0 780210981#0 780210980 137366598#0 771702976#0 23768622#0" />
  </vehicle>
  <vehicle id="i1_57" depart="126.67" type="passenger">
    <route edges="771754621 771731732 1159554013#0 135488882#0 780210981#0 780210980 137366598#0" />
  </vehicle>
  <vehicle id="i1_58" depart="128.89" type="passenger">
    <route edges="771754621 1177245703 1177245706 771714812#0 23768614 E1 744281459#0 771698634#0 771698634#0.34" />
  </vehicle>
  <vehicle id="i1_59" depart="131.11" type="truck">
    <route edges="771754621 771731732 1159554013#0 135488882#0 780210981#0 780210980 137366598#0 771702976#0 23768622#0 807042703#0 780002168#0" />
  </vehicle>
  <vehicle id="f1_22" depart="132.00" type="passenger">
    <route edges="135488883#0 780611992 135489025 1177245709 135488882#0 780210981#0 780210980 137366598#0 135623338#0 771688494#0 771692031#0 831791125#0 773857905 E0" />
  </vehicle>
  <vehicle id="i1_60" depart="133.33" type="passenger">
    <route edges="435677131#0 771688494#0 771692031#0 831791125#0 585291309#0 771693399 771714814 24585853 771736795 604773906" />
  </vehicle>
  <vehicle id="i1_61" depart="135.56" type="passenger">
    <route edges="771702976#0 23768622#0 807042703#0 780002168#0 780002167 137366601#0 28215294#0 771693399 771714814 24585853 771736795 604773906" />
  </vehicle>
  <vehicle id="i1_62" depart="137.78" type="passenger">
    <route edges="771702976#0 23768622#0 807042703#0 780002168#0 780002167 137366601#0 28215294#0 771693399 771714814 24585853 771736795 604773906" />
  </vehicle>
  <vehicle id="f1_23" depart="138.00" type="passenger">
    <route edges="135488883#0 780611992 135489025 1177245709 135488882#0 780210981#0 780210980 137366598#0 135623338#0 771688494#0 771692031#0 831791125#0 585291309#0 771693399 771714814" />
  </vehicle>
  <vehicle id="i1_63" depart="140.00" type="passenger">
    <route edges="771692031#0 831791125#0 585291309#0 771693399 771714814 24585853 771736795 604773906" />
  </vehicle>
  <vehicle id="i1_64" depart="142.22" type="motorcycle">
    <route edges="780002168#0 780002167 137366601#0 28215294#0 771693399 771714814 24585853 771736795 604773906" />
  </vehicle>
  <vehicle id="i1_65" depart="144.44" type="passenger">
    <route edges="135623338#0 771688494#0 771692031#0 831791125#0 585291309#0 771693399 771714814 24585853 771736795 604773906" />
  </vehicle>
  <vehicle id="i1_66" depart="146.67" type="passenger">
    <route edges="1177245703 1177245706 771714812#0 23768614 E1 744281459#0 771698634#0 771698634#0.34 771702976#0 23768622#0 436198228#0" />
  </vehicle>
  <vehicle id="i1_67" depart="148.89" type="bus">
    <route edges="771754621 771731732 1159554013#0 135488882#0 780210981#0 780210980 137366598#0 135623338#0" />
  </vehicle>
  <vehicle id="f1_25" depart="150.00" type="passenger">
    <route edges="135488883#0 780611992 135489025 1177245709 135488882#0 780210981#0 780210980 137366598#0 135623338#0 771688494#0 771692031#0 831791125#0 585291309#0 771693399 771714814" />
  </vehicle>
  <vehicle id="i1_68" depart="151.11" type="passenger">
    <route edges="771754621 771731732 1159554013#0 135488882#0 780210981#0 780210980 137366598#0 771702976#0 504344458" />
  </vehicle>
  <vehicle id="i1_69" depart="153.33" type="passenger">
    <route edges="771754621 1177245703 1177245706 771714812#0 135489026" />
  </vehicle>
  <vehicle id="i1_70" depart="155.56" type="passenger">
    <route edges="137366604#0 807042703#0 780002168#0 780002167 137366601#0 28215294#0 771693399 771714814 24585853 771736795 604773906" />
  </vehicle>
  <vehicle id="f1_26" depart="156.00" type="passenger">
    <route edges="135488883#0 780611992 135489025 1177245709 135488882#0 780210981#0 780210980 137366598#0 135623338#0 771688494#0" />
  </vehicle>
  <vehicle id="i1_71" depart="157.78" type="motorcycle">
    <route edges="771754621 771731732 1159554013#0 135488882#0 780210981#0 780210980 137366598#0 771702976#0 23768622#0" />
  </vehicle>
  <vehicle id="i1_72" depart="160.00" type="passenger">
    <route edges="771754621 771731732 1159554013#0 135488882#0 780210981#0 780210980 137366598#0" />
  </vehicle>
  <vehicle id="f1_27" depart="162.00" type="passenger">
    <route edges="135488883#0 780611992 135489025 1177245709 135488882#0 780210981#0 780210980 137366598#0 771702976#0 23768622#0 807042703#0 780002168#0" />
  </vehicle>
  <vehicle id="i1_73" depart="162.22" type="passenger">
    <route edges="807042703#0 780002168#0 780002167 137366601#0 28215294#0 771693399 771714814 24585853 771736795 604773906" />
  </vehicle>
  <vehicle id="i1_74" depart="164.44" type="bus">
    <route edges="135623338#0 771688494#0 771692031#0 831791125#0 585291309#0 771693399 771714814 24585853 771736795 604773906" />
  </vehicle>
  <vehicle id="i1_75" depart="166.67" type="passenger">
    <route edges="137366604#0 807042703#0 780002168#0 780002167 137366601#0 28215294#0 771693399 771714814 24585853 771736795 24585832#0" />
  </vehicle>
  <vehicle id="f1_28" depart="168.00" type="bus">
    <route edges="135488883#0 780611992 135489025 1177245709 135488882#0 780210981#0 780210980 137366598#0 771702976#0 23768622#0" />
  </vehicle>
  <vehicle id="i1_76" depart="168.89" type="motorcycle">
    <route edges="771754621 771731732 1159554013#0 135488882#0 780210981#0 780210980 137366598#0 135623338#0 771688494#0" />
  </vehicle>
  <vehicle id="i1_77" depart="171.11" type="passenger">
    <route edges="771754621 771731732 1159554013#0 135488882#0 780210981#0 780210980 137366598#0 135623338#0 135623552#0" />
  </vehicle>
  <vehicle id="i1_78" depart="173.33" type="motorcycle">
    <route edges="771754621 771731732 1159554013#0 135488882#0 780210981#0 780210980 137366598#0 771702976#0 23768622#0 807042703#0" />
  </vehicle>
  <vehicle id="f1_29" depart="174.00" type="passenger">
    <route edges="135488883#0 780611992 135489025 1177245709" />
  </vehicle>
  <vehicle id="i1_79" depart="175.56" type="passenger">
    <route edges="771754621 771731732 1159554013#0 135488882#0 780210981#0 780210980 137366598#0 771702976#0 23768622#0 807042703#0" />
  </vehicle>
  <vehicle id="i1_80" depart="177.78" type="passenger">
    <route edges="137366598#0 135623338#0 771688494#0 771692031#0 831791125#0 585291309#0 771693399 771714814 24585853 771736795 604773906" />
  </vehicle>
  <vehicle id="i1_81" depart="180.00" type="passenger">
    <route edges="771754621 771731732 1159554013#0 135488882#0 780210981#0 780210980 137366598#0 135623338#0 771688494#0" />
  </vehicle>
  <vehicle id="i1_82" depart="182.22" type="passenger">
    <route edges="771754621 771731732 1159554013#0 135488882#0 780210981#0 780210980 28215290#0" />
  </vehicle>
  <vehicle id="i1_83" depart="184.44" type="passenger">
    <route edges="771754621 771731732 1159554013#0 135488882#0 780210981#0 780210980 137366598#0 771702976#0 23768622#0 807042703#0 780002168#0" />
  </vehicle>
  <vehicle id="f1_31" depart="186.00" type="passenger">
    <route edges="135488883#0 780611992 135489025 1177245709 135488882#0 780210981#0 780210980 137366598#0 771702976#0 23768622#0 807042703#0 780002168#0 780002167 137366601#0 28215294#0" />
  </vehicle>
  <vehicle id="i1_84" depart="186.67" type="truck">
    <route edges="771754621 771731732 1159554013#0 135488882#0 780210981#0 780210980 137366598#0 771702976#0" />
  </vehicle>
  <vehicle id="i1_85" depart="188.89" type="motorcycle">
    <route edges="771754621 771731732 1159554013#0 135488882#0 780210981#0 780210980 137366598#0" />
  </vehicle>
  <vehicle id="i1_86" depart="191.11" type="passenger">
    <route edges="135623338#0 771688494#0 771692031#0 831791125#0 585291309#0 771693399 771714814 24585853 771736795 604773906" />
  </vehicle>
  <vehicle id="f1_32" depart="192.00" type="passenger">
    <route edges="135488883#0 780611992 135489025 1177245709 135488882#0 780210981#0 780210980 28215290#0 436198228#0" />
  </vehicle>
  <vehicle id="i1_87" depart="193.33" type="passenger">
    <route edges="771754621 771731732 1159554013#0 135488882#0 780210981#0 780210980 137366598#0 135623338#0 771688494#0" />
  </vehicle>
  <vehicle id="i1_88" depart="195.56" type="truck">
    <route edges="771754621 771731732 1159554013#0 135488882#0 780210981#0 780210980 137366598#0 771702976#0 23768622#0 807042703#0" />
  </vehicle>
  <vehicle id="i1_89" depart="197.78" type="motorcycle">
    <route edges="771754621 771731732 1159554013#0 135488882#0 780210981#0 780210980 28215290#0 771782259#0" />
  </vehicle>
  <vehicle id="f1_33" depart="198.00" type="passenger">
    <route edges="135488883#0 780611992 135489025 1177245709 135488882#0 780210981#0 780210980 137366598#0 771702976#0 23768622#0 807042703#0 780002168#0 780002167" />
  </vehicle>
  <vehicle id="i1_90" depart="200.00" type="passenger">
    <route edges="771702976#0 23768622#0 807042703#0 780002168#0 780002167 137366601#0 28215294#0 771693399 771714814 24585853 771736795 604773906" />
  </vehicle>
  <vehicle id="i1_91" depart="202.22" type="passenger">
    <route edges="771754621 1177245703 1177245706 771714812#0 23768614 E1 744281459#0 831791125#0 773857905 E0" />
  </vehicle>
  <vehicle id="f1_34" depart="204.00" type="passenger">
    <route edges="135488883#0 23768613 1177245702 771736795 604773906" />
  </vehicle>
  <vehicle id="i1_92" depart="204.44" type="motorcycle">
    <route edges="771754621 771731732 1159554013#0 135488882#0 780210981#0 780210980 137366598#0 135623338#0" />
  </vehicle>
  <vehicle id="i1_93" depart="206.67" type="passenger">
    <route edges="771754621 771731732 1159554013#0 135488882#0 780210981#0 780210980 28215290#0 436198228#0" />
  </vehicle>
  <vehicle id="i1_94" depart="208.89" type="motorcycle">
    <route edges="771754621 1177245703 1177245706 771714812#0 23768614 E1 744281459#0 771698634#0" />
  </vehicle>
  <vehicle id="f1_35" depart="210.00" type="passenger">
    <route edges="135488883#0 780611992 135489025 1177245709 135488882#0 780210981#0 780210980 137366598#0 135623338#0 771688494#0 771692031#0 831791125#0 585291309#0 771693399 24577040 771714812#0 23768614 771698635#0" />
  </vehicle>
  <vehicle id="i1_95" depart="211.11" type="passenger">
    <route edges="771754621 771731732 1159554013#0 135488882#0 780210981#0 780210980 28215290#0 771782259#0" />
  </vehicle>
  <vehicle id="i1_96" depart="213.33" type="passenger">
    <route edges="23768622#0 807042703#0 780002168#0 780002167 137366601#0 28215294#0 771693399 771714814 24585853 771736795 604773906" />
  </vehicle>
  <vehicle id="i1_97" depart="215.56" type="passenger">
    <route edges="771754621 771731732 1159554013#0 135488882#0 780210981#0 780210980 28215290#0 771782259#0" />
  </vehicle>
  <vehicle id="i1_98" depart="217.78" type="truck">
    <route edges="135623338#0 771688494#0 771692031#0 831791125#0 585291309#0 771693399 771714814 24585853 771736795 604773906" />
  </vehicle>
  <vehicle id="i1_99" depart="220.00" type="motorcycle">
    <route edges="771754621 771731732 1159554013#0 135488882#0 780210981#0 780210980 137366598#0 135623338#0 771688494#0" />
  </vehicle>
  <vehicle id="i1_100" depart="222.22" type="motorcycle">
    <route edges="780002167 137366601#0 28215294#0 771693399 771714814 24585853 771736795 604773906" />
  </vehicle>
  <vehicle id="i1_101" depart="224.44" type="passenger">
    <route edges="23768622#0 807042703#0 780002168#0 780002167 137366601#0 28215294#0 771693399 771714814 24585853 771736795 604773906" />
  </vehicle>
  <vehicle id="i1_102" depart="226.67" type="passenger">
    <route edges="137366598#0 135623338#0 771688494#0 771692031#0 831791125#0 585291309#0 771693399 771714814 24585853 771736795 604773906" />
  </vehicle>
  <vehicle id="f1_38" depart="228.00" type="motorcycle">
    <route edges="135488883#0 23768613 1177245702 771736795 604773906" />
  </vehicle>
  <vehicle id="i1_103" depart="228.89" type="truck">
    <route edges="807042703#0 780002168#0 780002167 137366601#0 28215294#0 771693399 771714814 24585853 771736795 604773906" />
  </vehicle>
  <vehicle id="i1_104" depart="231.11" type="passenger">
    <route edges="135623338#0 771688494#0 771692031#0 831791125#0 585291309#0 771693399 771714814 24585853 771736795 604773906" />
  </vehicle>
  <vehicle id="i1_105" depart="233.33" type="passenger">
    <route edges="771754621 1177245703 1177245706 771714812#0 135489026" />
  </vehicle>
  <vehicle id="f1_39" depart="234.00" type="passenger">
    <route edges="135488883#0 780611992 135489025 1177245709 135488882#0 780210981#0 780210980 137366598#0 771702976#0 23768622#0 807042703#0 780002168#0 780002167" />
  </vehicle>
  <vehicle id="i1_106" depart="235.56" type="motorcycle">
    <route edges="780002167 137366601#0 28215294#0 771693399 771714814 24585853 771736795 604773906" />
  </vehicle>
  <vehicle id="i1_107" depart="237.78" type="motorcycle">
    <route edges="435677131#0 771688494#0 771692031#0 831791125#0 585291309#0 771693399 771714814 24585853 771736795 24585832#0" />
  </vehicle>
  <vehicle id="i1_108" depart="240.00" type="passenger">
    <route edges="771754621 771731732 1159554013#0 135488882#0 780210981#0 780210980 28215290#0" />
  </vehicle>
  <vehicle id="f1_40" depart="240.00" type="passenger">
    <route edges="135488883#0 780611992 135489025 1177245709 135488882#0 780210981#0 780210980 137366598#0 135623338#0" />
  </vehicle>
  <vehicle id="i1_109" depart="242.22" type="passenger">
    <route edges="771754621 771731732 1159554013#0 135488882#0 780210981#0 780210980 137366598#0 771702976#0 23768622#0 807042703#0" />
  </vehicle>
  <vehicle id="i1_110" depart="244.44" type="passenger">
    <route edges="771754621 771731732 1159554013#0 135488882#0 780210981#0 780210980 137366598#0 771702976#0 504344458" />
  </vehicle>
  <vehicle id="i1_111" depart="246.67" type="motorcycle">
    <route edges="771688494#0 771692031#0 831791125#0 585291309#0 771693399 771714814 24585853 771736795 604773906" />
  </vehicle>
  <vehicle id="i1_112" depart="248.89" type="passenger">
    <route edges="771702976#0 23768622#0 807042703#0 780002168#0 780002167 137366601#0 28215294#0 771693399 771714814 24585853 771736795 604773906" />
  </vehicle>
  <vehicle id="i1_113" depart="251.11" type="passenger">
    <route edges="771754621 771731732 1159554013#0 135488882#0 780210981#0 780210980 137366598#0" />
  </vehicle>
  <vehicle id="f1_42" depart="252.00" type="passenger">
    <route edges="135488883#0 780611992 135489025 1177245709 135488882#0 780210981#0 780210980 28215290#0 771782259#0" />
  </vehicle>
  <vehicle id="i1_114" depart="253.33" type="motorcycle">
    <route edges="771754621 771731732 1159554013#0 135488882#0 780210981#0 780210980 137366598#0 135623338#0 771688494#0" />
  </vehicle>
  <vehicle id="i1_115" depart="255.56" type="passenger">
    <route edges="771754621 771731732 1159554013#0 135488882#0 780210981#0 780210980 137366598#0 135623338#0 135623552#0" />
  </vehicle>