<?xml version="1.0" encoding="UTF-8"?>

<!-- generated on 2026-04-03 16:34:15.058501 by Eclipse SUMO randomTrips.py v1_26_0+0000-fa7df22d7f1
<configuration>
    <net-file value="C:\Users\kenho\Sumo\ABSTLight_for_GCP\sumo_files\osm.net.xml.gz"/>
    <output-trip-file value="C:\Users\kenho\Sumo\ABSTLight_for_GCP\sumo_files\tmp.peak.3.cooldown.trips.xml"/>
    <prefix value="i3_"/>
    <seed value="45"/>
    <min-distance value="500.0"/>
    <begin value="2400.0"/>
    <end value="3000.0"/>
    <period value="2.0"/>
</configuration>
-->

<!-- generated on 2026-04-03T16:34:14.981461+08:00 by Eclipse SUMO duarouter 1.26.0
<duarouterConfiguration xmlns:xsi="http://www.w3.org/2001/XMLSchema-instance" xsi:noNamespaceSchemaLocation="http://sumo.dlr.de/xsd/duarouterConfiguration.xsd">

    <input>
        <net-file value="C:\Users\kenho\Sumo\ABSTLight_for_GCP\sumo_files\osm.net.xml.gz"/>
        <route-files value="C:\Users\kenho\Sumo\ABSTLight_for_GCP\sumo_files\tmp.peak.3.cooldown.trips.xml"/>
    </input>

    <output>
        <output-file value="routes.rou.xml"/>
        <alternatives-output value="NUL"/>
    </output>

    <time>
        <begin value="2400.0"/>
        <end value="3000.0"/>
    </time>

    <report>
        <no-warnings value="true"/>
        <ignore-errors value="true"/>
        <no-step-log value="true"/>
    </report>

</duarouterConfiguration>
-->

<routes xmlns:xsi="http://www.w3.org/2001/XMLSchema-instance" xsi:noNamespaceSchemaLocation="http://sumo.dlr.de/xsd/routes_file.xsd">
    <vehicle id="i3_0" depart="2400.00">
        <route edges="771754621 1177245703 1177245706 771714812#0 23768614 E1 744281459#0 831791125#0 773857905 E0"/>
    </vehicle>
    <vehicle id="i3_1" depart="2402.00">
        <route edges="771754621 771731732 1159554013#0 135488882#0 780210981#0 780210980 137366598#0 771702976#0 23768622#0 807042703#0 780002168#0"/>
    </vehicle>
    <vehicle id="i3_2" depart="2404.00">
        <route edges="780002168#0 780002167 137366601#0 28215294#0 771693399 771714814 24585853 771736795 604773906"/>
    </vehicle>
    <vehicle id="i3_3" depart="2406.00">
        <route edges="137366598#0 135623338#0 771688494#0 771692031#0 831791125#0 585291309#0 771693399 771714814 24585853 771736795 604773906"/>
    </vehicle>
    <vehicle id="i3_4" depart="2408.00">
        <route edges="771702976#0 23768622#0 807042703#0 780002168#0 780002167 137366601#0 28215294#0 771693399 771714814 24585853 771736795 604773906"/>
    </vehicle>
    <vehicle id="i3_5" depart="2410.00">
        <route edges="771754621 1177245703 1177245706 771714812#0 23768614 E1 744281459#0 771698634#0 771698634#0.34"/>
    </vehicle>
    <vehicle id="i3_6" depart="2412.00">
        <route edges="137366604#0 807042703#0 780002168#0 780002167 137366601#0 28215294#0 771693399 771714814 24585853 771736795 24585832#0"/>
    </vehicle>
    <vehicle id="i3_7" depart="2414.00">
        <route edges="771754621 771731732 1159554013#0 135488882#0 780210981#0 780210980 137366598#0 771702976#0 23768622#0 807042703#0"/>
    </vehicle>
    <vehicle id="i3_8" depart="2416.00">
        <route edges="771702976#0 23768622#0 807042703#0 780002168#0 780002167 137366601#0 28215294#0 771693399 771714814 24585853 771736795 604773906"/>
    </vehicle>
    <vehicle id="i3_9" depart="2418.00">
        <route edges="771731732 1159554013#0 135488882#0 780210981#0 780210980 28215290#0 436198228#0"/>
    </vehicle>
    <vehicle id="i3_10" depart="2420.00">
        <route edges="771754621 1177245703 1177245706 771714812#0 23768614 E1 744281459#0 831791125#0 773857905 E0"/>
    </vehicle>
    <vehicle id="i3_11" depart="2422.00">
        <route edges="771754621 1177245703 1177245706 771714812#0 23768614 E1 744281459#0 771698634#0 771698634#0.34"/>
    </vehicle>
    <vehicle id="i3_12" depart="2424.00">
        <route edges="771754621 1177245703 1177245706 771714812#0 23768614 E1 744281459#0 771698634#0 771698634#0.34"/>
    </vehicle>
    <vehicle id="i3_13" depart="2426.00">
        <route edges="771754621 771731732 1159554013#0 135488882#0 780210981#0 780210980 137366598#0 135623338#0"/>
    </vehicle>
    <vehicle id="i3_14" depart="2428.00">
        <route edges="771688494#0 771692031#0 831791125#0 585291309#0 771693399 771714814 24585853 771736795 604773906"/>
    </vehicle>
    <vehicle id="i3_15" depart="2430.00">
        <route edges="771754621 1177245703 1177245706 771714812#0 23768614 E1 744281459#0 831791125#0 773857905 E0"/>
    </vehicle>
    <vehicle id="i3_16" depart="2432.00">
        <route edges="1177245703 1177245706 771714812#0 23768614 E1 744281459#0 771698634#0 771698634#0.34 771702976#0 23768622#0 436198228#0"/>
    </vehicle>
    <vehicle id="i3_17" depart="2434.00">
        <route edges="780002167 137366601#0 28215294#0 771693399 771714814 24585853 771736795 604773906"/>
    </vehicle>
    <vehicle id="i3_18" depart="2436.00">
        <route edges="771754621 771731732 1159554013#0 135488882#0 780210981#0 780210980 28215290#0 436198228#0"/>
    </vehicle>
    <vehicle id="i3_19" depart="2438.00">
        <route edges="771754621 1177245703 1177245706 771714812#0 23768614 E1 744281459#0 771698634#0"/>
    </vehicle>
    <vehicle id="i3_20" depart="2440.00">
        <route edges="771754621 771731732 1159554013#0 135488882#0 780210981#0 780210980 137366598#0 771702976#0 23768622#0 807042703#0"/>
    </vehicle>
    <vehicle id="i3_21" depart="2442.00">
        <route edges="771754621 1177245703 1177245706 771714812#0 23768614 E1 744281459#0 771698634#0 771698634#0.34"/>
    </vehicle>
    <vehicle id="i3_22" depart="2444.00">
        <route edges="771754621 771731732 1159554013#0 135488882#0 780210981#0 780210980"/>
    </vehicle>
    <vehicle id="i3_23" depart="2446.00">
        <route edges="771692031#0 831791125#0 585291309#0 771693399 771714814 24585853 771736795 604773906"/>
    </vehicle>
    <vehicle id="i3_24" depart="2448.00">
        <route edges="771702976#0 23768622#0 807042703#0 780002168#0 780002167 137366601#0 28215294#0 771693399 771714814 24585853 771736795 604773906"/>
    </vehicle>
    <vehicle id="i3_25" depart="2450.00">
        <route edges="771754621 771731732 1159554013#0 135488882#0 780210981#0 780210980 137366598#0 135623338#0 771688494#0 135623660#0"/>
    </vehicle>
    <vehicle id="i3_26" depart="2452.00">
        <route edges="23768622#0 807042703#0 780002168#0 780002167 137366601#0 28215294#0 771693399 771714814 24585853 771736795 604773906"/>
    </vehicle>
    <vehicle id="i3_27" depart="2454.00">
        <route edges="318479152#0 771692031#0 831791125#0 585291309#0 771693399 771714814 24585853 771736795 604773906"/>
    </vehicle>
    <vehicle id="i3_28" depart="2456.00">
        <route edges="771688494#0 771692031#0 831791125#0 585291309#0 771693399 771714814 24585853 771736795 604773906"/>
    </vehicle>
    <vehicle id="i3_29" depart="2458.00">
        <route edges="771754621 771731732 1159554013#0 135488882#0 780210981#0 780210980 137366598#0 771702976#0 23768622#0"/>
    </vehicle>
    <vehicle id="i3_30" depart="2460.00">
        <route edges="771754621 1177245703 1177245706 771714812#0 23768614 E1 744281459#0 771698634#0"/>
    </vehicle>
    <vehicle id="i3_31" depart="2462.00">
        <route edges="780002167 137366601#0 28215294#0 771693399 771714814 24585853 771736795 604773906"/>
    </vehicle>
    <vehicle id="i3_32" depart="2464.00">
        <route edges="771754621 771731732 1159554013#0 135488882#0 780210981#0 780210980 137366598#0 135623338#0 771688494#0 135623660#0"/>
    </vehicle>
    <vehicle id="i3_33" depart="2466.00">
        <route edges="771731732 1159554013#0 135488882#0 780210981#0 780210980 28215290#0 436198228#0"/>
    </vehicle>
    <vehicle id="i3_34" depart="2468.00">
        <route edges="771692031#0 831791125#0 585291309#0 771693399 771714814 24585853 771736795 604773906"/>
    </vehicle>
    <vehicle id="i3_35" depart="2470.00">
        <route edges="771754621 771731732 1159554013#0 135488882#0 780210981#0 780210980 28215290#0"/>
    </vehicle>
    <vehicle id="i3_36" depart="2472.00">
        <route edges="771754621 771731732 1159554013#0 135488882#0 780210981#0 780210980 28215290#0"/>
    </vehicle>
    <vehicle id="i3_37" depart="2474.00">
        <route edges="780002168#0 780002167 137366601#0 28215294#0 771693399 771714814 24585853 771736795 604773906"/>
    </vehicle>
    <vehicle id="i3_38" depart="2476.00">
        <route edges="771702976#0 23768622#0 807042703#0 780002168#0 780002167 137366601#0 28215294#0 771693399 771714814 24585853 771736795 604773906"/>
    </vehicle>
    <vehicle id="i3_39" depart="2478.00">
        <route edges="771754621 771731732 1159554013#0 135488882#0 780210981#0 780210980 28215290#0 436198228#0"/>
    </vehicle>
    <vehicle id="i3_40" depart="2480.00">
        <route edges="771688494#0 771692031#0 831791125#0 585291309#0 771693399 771714814 24585853 771736795 604773906"/>
    </vehicle>
    <vehicle id="i3_41" depart="2482.00">
        <route edges="771754621 771731732 1159554013#0 135488882#0 780210981#0 780210980 28215290#0 436198228#0"/>
    </vehicle>
    <vehicle id="i3_42" depart="2484.00">
        <route edges="771754621 771731732 1159554013#0 135488882#0 780210981#0 780210980 28215290#0"/>
    </vehicle>
    <vehicle id="i3_43" depart="2486.00">
        <route edges="435677131#0 771688494#0 771692031#0 831791125#0 585291309#0 771693399 771714814 24585853 771736795 24585832#0"/>
    </vehicle>
    <vehicle id="i3_44" depart="2488.00">
        <route edges="771754621 771731732 1159554013#0 135488882#0 780210981#0 780210980 28215290#0 771782259#0"/>
    </vehicle>
    <vehicle id="i3_45" depart="2490.00">
        <route edges="771754621 771731732 1159554013#0 135488882#0 780210981#0 780210980 28215290#0 771782259#0"/>
    </vehicle>
    <vehicle id="i3_46" depart="2492.00">
        <route edges="771698634#0.34 135623338#0 771688494#0 771692031#0 831791125#0 585291309#0 771693399 771714814 24585853 771736795 604773906"/>
    </vehicle>
    <vehicle id="i3_47" depart="2494.00">
        <route edges="771754621 771731732 1159554013#0 135488882#0 780210981#0 780210980 28215290#0 771782259#0"/>
    </vehicle>
    <vehicle id="i3_48" depart="2496.00">
        <route edges="771688494#0 771692031#0 831791125#0 585291309#0 771693399 771714814 24585853 771736795 604773906"/>
    </vehicle>
    <vehicle id="i3_49" depart="2498.00">
        <route edges="771754621 771731732 1159554013#0 135488882#0 780210981#0 780210980 28215290#0"/>
    </vehicle>
    <vehicle id="i3_50" depart="2500.00">
        <route edges="23768622#0 807042703#0 780002168#0 780002167 137366601#0 28215294#0 771693399 771714814 24585853 771736795 604773906"/>
    </vehicle>
    <vehicle id="i3_51" depart="2502.00">
        <route edges="771754621 1177245703 1177245706 771714812#0 135489026"/>
    </vehicle>
    <vehicle id="i3_52" depart="2504.00">
        <route edges="435677131#0 771688494#0 771692031#0 831791125#0 585291309#0 771693399 771714814 24585853 771736795 604773906"/>
    </vehicle>
    <vehicle id="i3_53" depart="2506.00">
        <route edges="771754621 771731732 1159554013#0 135488882#0 780210981#0 780210980 137366598#0 135623338#0"/>
    </vehicle>
    <vehicle id="i3_54" depart="2508.00">
        <route edges="771702976#0 23768622#0 807042703#0 780002168#0 780002167 137366601#0 28215294#0 771693399 771714814 24585853 771736795 604773906"/>
    </vehicle>
    <vehicle id="i3_55" depart="2510.00">
        <route edges="318479152#0 771692031#0 831791125#0 585291309#0 771693399 771714814 24585853 771736795 604773906"/>
    </vehicle>
    <vehicle id="i3_56" depart="2512.00">
        <route edges="771692031#0 831791125#0 585291309#0 771693399 771714814 24585853 771736795 604773906"/>
    </vehicle>
    <vehicle id="i3_57" depart="2514.00">
        <route edges="137366604#0 807042703#0 780002168#0 780002167 137366601#0 28215294#0 771693399 771714814 24585853 771736795 24585832#0"/>
    </vehicle>
    <vehicle id="i3_58" depart="2516.00">
        <route edges="137366604#0 807042703#0 780002168#0 780002167 137366601#0 28215294#0 771693399 771714814 24585853 771736795 604773906"/>
    </vehicle>
    <vehicle id="i3_59" depart="2518.00">
        <route edges="1177245703 1177245706 771714812#0 23768614 E1 744281459#0 771698634#0 771698634#0.34 771702976#0 23768622#0 436198228#0"/>
    </vehicle>
    <vehicle id="i3_60" depart="2520.00">
        <route edges="771754621 771731732 1159554013#0 135488882#0 780210981#0 780210980 137366598#0 771702976#0 23768622#0 807042703#0"/>
    </vehicle>
    <vehicle id="i3_61" depart="2522.00">
        <route edges="771754621 771731732 1159554013#0 135488882#0 780210981#0 780210980 28215290#0 771782259#0"/>
    </vehicle>
    <vehicle id="i3_62" depart="2524.00">
        <route edges="771731732 1159554013#0 135488882#0 780210981#0 780210980 28215290#0 436198228#0"/>
    </vehicle>
    <vehicle id="i3_63" depart="2526.00">
        <route edges="771754621 771731732 1159554013#0 135488882#0 780210981#0 780210980 137366598#0 771702976#0 23768622#0 807042703#0 780002168#0"/>
    </vehicle>
    <vehicle id="i3_64" depart="2528.00">
        <route edges="771754621 771731732 1159554013#0 135488882#0 780210981#0 780210980 28215290#0"/>
    </vehicle>
    <vehicle id="i3_65" depart="2530.00">
        <route edges="771702976#0 23768622#0 807042703#0 780002168#0 780002167 137366601#0 28215294#0 771693399 771714814 24585853 771736795 604773906"/>
    </vehicle>
    <vehicle id="i3_66" depart="2532.00">
        <route edges="23768622#0 807042703#0 780002168#0 780002167 137366601#0 28215294#0 771693399 771714814 24585853 771736795 604773906"/>
    </vehicle>
    <vehicle id="i3_67" depart="2534.00">
        <route edges="771754621 771731732 1159554013#0 135488882#0 780210981#0 780210980 137366598#0 771702976#0"/>
    </vehicle>
    <vehicle id="i3_68" depart="2536.00">
        <route edges="771702976#0 23768622#0 807042703#0 780002168#0 780002167 137366601#0 28215294#0 771693399 771714814 24585853 771736795 604773906"/>
    </vehicle>
    <vehicle id="i3_69" depart="2538.00">
        <route edges="771754621 771731732 1159554013#0 135488882#0 780210981#0 780210980 28215290#0"/>
    </vehicle>
    <vehicle id="i3_70" depart="2540.00">
        <route edges="771754621 771731732 1159554013#0 135488882#0 780210981#0 780210980 137366598#0 135623338#0 135623552#0"/>
    </vehicle>
    <vehicle id="i3_71" depart="2542.00">
        <route edges="137366604#0 807042703#0 780002168#0 780002167 137366601#0 28215294#0 771693399 771714814 24585853 771736795 604773906"/>
    </vehicle>
    <vehicle id="i3_72" depart="2544.00">
        <route edges="771754621 1177245703 1177245706 771714812#0 23768614 E1 744281459#0 771698634#0"/>
    </vehicle>
    <vehicle id="i3_73" depart="2546.00">
        <route edges="771754621 1177245703 1177245706 771714812#0 23768614 E1 744281459#0 771698634#0"/>
    </vehicle>
    <vehicle id="i3_74" depart="2548.00">
        <route edges="771754621 1177245703 1177245706 771714812#0 23768614 E1 744281459#0 771698634#0"/>
    </vehicle>
    <vehicle id="i3_75" depart="2550.00">
        <route edges="137366598#0 135623338#0 771688494#0 771692031#0 831791125#0 585291309#0 771693399 771714814 24585853 771736795 604773906"/>
    </vehicle>
    <vehicle id="i3_76" depart="2552.00">
        <route edges="807042703#0 780002168#0 780002167 137366601#0 28215294#0 771693399 771714814 24585853 771736795 604773906"/>
    </vehicle>
    <vehicle id="i3_77" depart="2554.00">
        <route edges="771754621 771731732 1159554013#0 135488882#0 780210981#0 780210980 137366598#0 771702976#0 23768622#0"/>
    </vehicle>
    <vehicle id="i3_78" depart="2556.00">
        <route edges="23768622#0 807042703#0 780002168#0 780002167 137366601#0 28215294#0 771693399 771714814 24585853 771736795 604773906"/>
    </vehicle>
    <vehicle id="i3_79" depart="2558.00">
        <route edges="771754621 1177245703 1177245706 771714812#0 135489026"/>
    </vehicle>
    <vehicle id="i3_80" depart="2560.00">
        <route edges="771698634#0.34 135623338#0 771688494#0 771692031#0 831791125#0 585291309#0 771693399 771714814 24585853 771736795 604773906"/>
    </vehicle>
    <vehicle id="i3_81" depart="2562.00">
        <route edges="771754621 771731732 1159554013#0 135488882#0 780210981#0 780210980 137366598#0"/>
    </vehicle>
    <vehicle id="i3_82" depart="2564.00">
        <route edges="771754621 771731732 1159554013#0 135488882#0 780210981#0 780210980 137366598#0 771702976#0 23768622#0"/>
    </vehicle>
    <vehicle id="i3_83" depart="2566.00">
        <route edges="771754621 771731732 1159554013#0 135488882#0 780210981#0 780210980 137366598#0 771702976#0 23768622#0 807042703#0 780002168#0"/>
    </vehicle>
    <vehicle id="i3_84" depart="2568.00">
        <route edges="807042703#0 780002168#0 780002167 137366601#0 28215294#0 771693399 771714814 24585853 771736795 604773906"/>
    </vehicle>
    <vehicle id="i3_85" depart="2570.00">
        <route edges="771754621 1177245703 1177245706 771714812#0 135489026"/>
    </vehicle>
    <vehicle id="i3_86" depart="2572.00">
        <route edges="771754621 1177245703 1177245706 771714812#0 23768614 E1 744281459#0 771698634#0"/>
    </vehicle>
    <vehicle id="i3_87" depart="2574.00">
        <route edges="771754621 771731732 1159554013#0 135488882#0 780210981#0 780210980 137366598#0 135623338#0"/>
    </vehicle>
    <vehicle id="i3_88" depart="2576.00">
        <route edges="1177245703 1177245706 771714812#0 23768614 E1 744281459#0 771698634#0 771698634#0.34 771702976#0 23768622#0 436198228#0"/>
    </vehicle>
    <vehicle id="i3_89" depart="2578.00">
        <route edges="771754621 771731732 1159554013#0 135488882#0 780210981#0 780210980 137366598#0 771702976#0 504344458"/>
    </vehicle>
    <vehicle id="i3_90" depart="2580.00">
        <route edges="771754621 771731732 1159554013#0 135488882#0 780210981#0 780210980 137366598#0 135623338#0 771688494#0 135623660#0"/>
    </vehicle>
    <vehicle id="i3_91" depart="2582.00">
        <route edges="771731732 1159554013#0 135488882#0 780210981#0 780210980 28215290#0 436198228#0"/>
    </vehicle>
    <vehicle id="i3_92" depart="2584.00">
        <route edges="771754621 771731732 1159554013#0 135488882#0 780210981#0 780210980 137366598#0 135623338#0 135623552#0"/>
    </vehicle>
    <vehicle id="i3_93" depart="2586.00">
        <route edges="771702976#0 23768622#0 807042703#0 780002168#0 780002167 137366601#0 28215294#0 771693399 771714814 24585853 771736795 604773906"/>
    </vehicle>
    <vehicle id="i3_94" depart="2588.00">
        <route edges="771754621 771731732 1159554013#0 135488882#0 780210981#0 780210980"/>
    </vehicle>
    <vehicle id="i3_95" depart="2590.00">
        <route edges="137366604#0 807042703#0 780002168#0 780002167 137366601#0 28215294#0 771693399 771714814 24585853 771736795 24585832#0"/>
    </vehicle>
    <vehicle id="i3_96" depart="2592.00">
        <route edges="771754621 1177245703 1177245706 771714812#0 23768614 E1 744281459#0 831791125#0 773857905 E0"/>
    </vehicle>
    <vehicle id="i3_97" depart="2594.00">
        <route edges="771754621 771731732 1159554013#0 135488882#0 780210981#0 780210980 137366598#0 135623338#0"/>
    </vehicle>
    <vehicle id="i3_98" depart="2596.00">
        <route edges="771754621 771731732 1159554013#0 135488882#0 780210981#0 780210980 28215290#0 771782259#0"/>
    </vehicle>
    <vehicle id="i3_99" depart="2598.00">
        <route edges="23768622#0 807042703#0 780002168#0 780002167 137366601#0 28215294#0 771693399 771714814 24585853 771736795 604773906"/>
    </vehicle>
    <vehicle id="i3_100" depart="2600.00">
        <route edges="807042703#0 780002168#0 780002167 137366601#0 28215294#0 771693399 771714814 24585853 771736795 604773906"/>
    </vehicle>
    <vehicle id="i3_101" depart="2602.00">
        <route edges="771754621 1177245703 1177245706 771714812#0 135489026"/>
    </vehicle>
    <vehicle id="i3_102" depart="2604.00">
        <route edges="771692031#0 831791125#0 585291309#0 771693399 771714814 24585853 771736795 604773906"/>
    </vehicle>
    <vehicle id="i3_103" depart="2606.00">
        <route edges="771754621 1177245703 1177245706 771714812#0 23768614 E1 744281459#0 771698634#0"/>
    </vehicle>
    <vehicle id="i3_104" depart="2608.00">
        <route edges="780002167 137366601#0 28215294#0 771693399 771714814 24585853 771736795 604773906"/>
    </vehicle>
    <vehicle id="i3_105" depart="2610.00">
        <route edges="1177245703 1177245706 771714812#0 23768614 E1 744281459#0 771698634#0 771698634#0.34 771702976#0 23768622#0 436198228#0"/>
    </vehicle>
    <vehicle id="i3_106" depart="2612.00">
        <route edges="1177245703 1177245706 771714812#0 23768614 E1 744281459#0 771698634#0 771698634#0.34 771702976#0 23768622#0 436198228#0"/>
    </vehicle>
    <vehicle id="i3_107" depart="2614.00">
        <route edges="771754621 771731732 1159554013#0 135488882#0 780210981#0 780210980 137366598#0"/>
    </vehicle>
    <vehicle id="i3_108" depart="2616.00">
        <route edges="137366604#0 807042703#0 780002168#0 780002167 137366601#0 28215294#0 771693399 771714814 24585853 771736795 604773906"/>
    </vehicle>
    <vehicle id="i3_109" depart="2618.00">
        <route edges="771754621 771731732 1159554013#0 135488882#0 780210981#0 780210980 137366598#0 135623338#0 771688494#0 135623660#0"/>
    </vehicle>
    <vehicle id="i3_110" depart="2620.00">
        <route edges="771754621 771731732 1159554013#0 135488882#0 780210981#0 780210980"/>
    </vehicle>
    <vehicle id="i3_111" depart="2622.00">
        <route edges="780002168#0 780002167 137366601#0 28215294#0 771693399 771714814 24585853 771736795 604773906"/>
    </vehicle>
    <vehicle id="i3_112" depart="2624.00">
        <route edges="771754621 771731732 1159554013#0 135488882#0 780210981#0 780210980"/>
    </vehicle>
    <vehicle id="i3_113" depart="2626.00">
        <route edges="137366604#0 807042703#0 780002168#0 780002167 137366601#0 28215294#0 771693399 771714814 24585853 771736795 24585832#0"/>
    </vehicle>
    <vehicle id="i3_114" depart="2628.00">
        <route edges="771698634#0.34 135623338#0 771688494#0 771692031#0 831791125#0 585291309#0 771693399 771714814 24585853 771736795 604773906"/>
    </vehicle>
    <vehicle id="i3_115" depart="2630.00">
        <route edges="137366604#0 807042703#0 780002168#0 780002167 137366601#0 28215294#0 771693399 771714814 24585853 771736795 24585832#0"/>
    </vehicle>
    <vehicle id="i3_116" depart="2632.00">
        <route edges="771688494#0 771692031#0 831791125#0 585291309#0 771693399 771714814 24585853 771736795 604773906"/>
    </vehicle>
    <vehicle id="i3_117" depart="2634.00">
        <route edges="771754621 771731732 1159554013#0 135488882#0 780210981#0 780210980 137366598#0 771702976#0 23768622#0"/>
    </vehicle>
    <vehicle id="i3_118" depart="2636.00">
        <route edges="771754621 1177245703 1177245706 771714812#0 23768614 E1 744281459#0 831791125#0 773857905 E0"/>
    </vehicle>
    <vehicle id="i3_119" depart="2638.00">
        <route edges="435677131#0 771688494#0 771692031#0 831791125#0 585291309#0 771693399 771714814 24585853 771736795 24585832#0"/>
    </vehicle>
    <vehicle id="i3_120" depart="2640.00">
        <route edges="435677131#0 771688494#0 771692031#0 831791125#0 585291309#0 771693399 771714814 24585853 771736795 604773906"/>
    </vehicle>
    <vehicle id="i3_121" depart="2642.00">
        <route edges="137366598#0 135623338#0 771688494#0 771692031#0 831791125#0 585291309#0 771693399 771714814 24585853 771736795 604773906"/>
    </vehicle>
    <vehicle id="i3_122" depart="2644.00">
        <route edges="771754621 771731732 1159554013#0 135488882#0 780210981#0 780210980 28215290#0 436198228#0"/>
    </vehicle>
    <vehicle id="i3_123" depart="2646.00">
        <route edges="780002167 137366601#0 28215294#0 771693399 771714814 24585853 771736795 604773906"/>
    </vehicle>
    <vehicle id="i3_124" depart="2648.00">
        <route edges="771754621 771731732 1159554013#0 135488882#0 780210981#0 780210980 137366598#0 135623338#0"/>
    </vehicle>
    <vehicle id="i3_125" depart="2650.00">
        <route edges="771754621 771731732 1159554013#0 135488882#0 780210981#0 780210980 137366598#0"/>
    </vehicle>
    <vehicle id="i3_126" depart="2652.00">
        <route edges="771702976#0 23768622#0 807042703#0 780002168#0 780002167 137366601#0 28215294#0 771693399 771714814 24585853 771736795 604773906"/>
    </vehicle>
    <vehicle id="i3_127" depart="2654.00">
        <route edges="771754621 771731732 1159554013#0 135488882#0 780210981#0 780210980 28215290#0"/>
    </vehicle>
    <vehicle id="i3_128" depart="2656.00">
        <route edges="771754621 771731732 1159554013#0 135488882#0 780210981#0 780210980 137366598#0 771702976#0"/>
    </vehicle>
    <vehicle id="i3_129" depart="2658.00">
        <route edges="771754621 771731732 1159554013#0 135488882#0 780210981#0 780210980 137366598#0 771702976#0 504344458"/>
    </vehicle>
    <vehicle id="i3_130" depart="2660.00">
        <route edges="771754621 771731732 1159554013#0 135488882#0 780210981#0 780210980 28215290#0 436198228#0"/>
    </vehicle>
    <vehicle id="i3_131" depart="2662.00">
        <route edges="771702976#0 23768622#0 807042703#0 780002168#0 780002167 137366601#0 28215294#0 771693399 771714814 24585853 771736795 604773906"/>
    </vehicle>
    <vehicle id="i3_132" depart="2664.00">
        <route edges="771702976#0 23768622#0 807042703#0 780002168#0 780002167 137366601#0 28215294#0 771693399 771714814 24585853 771736795 604773906"/>
    </vehicle>
    <vehicle id="i3_133" depart="2666.00">
        <route edges="771754621 771731732 1159554013#0 135488882#0 780210981#0 780210980 137366598#0 135623338#0"/>
    </vehicle>
    <vehicle id="i3_134" depart="2668.00">
        <route edges="23768622#0 807042703#0 780002168#0 780002167 137366601#0 28215294#0 771693399 771714814 24585853 771736795 604773906"/>
    </vehicle>
    <vehicle id="i3_135" depart="2670.00">
        <route edges="771754621 1177245703 1177245706 771714812#0 23768614 E1 744281459#0 771698634#0"/>
    </vehicle>
    <vehicle id="i3_136" depart="2672.00">
        <route edges="771754621 771731732 1159554013#0 135488882#0 780210981#0 780210980 137366598#0 135623338#0"/>
    </vehicle>
    <vehicle id="i3_137" depart="2674.00">
        <route edges="771754621 771731732 1159554013#0 135488882#0 780210981#0 780210980 137366598#0 135623338#0 135623552#0"/>
    </vehicle>
    <vehicle id="i3_138" depart="2676.00">
        <route edges="771754621 771731732 1159554013#0 135488882#0 780210981#0 780210980 137366598#0 771702976#0 23768622#0 807042703#0 780002168#0"/>
    </vehicle>
    <vehicle id="i3_139" depart="2678.00">
        <route edges="780002167 137366601#0 28215294#0 771693399 771714814 24585853 771736795 604773906"/>
    </vehicle>
    <vehicle id="i3_140" depart="2680.00">
        <route edges="771698634#0.34 135623338#0 771688494#0 771692031#0 831791125#0 585291309#0 771693399 771714814 24585853 771736795 604773906"/>
    </vehicle>
    <vehicle id="i3_141" depart="2682.00">
        <route edges="137366604#0 807042703#0 780002168#0 780002167 137366601#0 28215294#0 771693399 771714814 24585853 771736795 604773906"/>
    </vehicle>
    <vehicle id="i3_142" depart="2684.00">
        <route edges="771754621 771731732 1159554013#0 135488882#0 780210981#0 780210980 137366598#0 771702976#0 23768622#0"/>
    </vehicle>
    <vehicle id="i3_143" depart="2686.00">
        <route edges="137366604#0 807042703#0 780002168#0 780002167 137366601#0 28215294#0 771693399 771714814 24585853 771736795 604773906"/>
    </vehicle>
    <vehicle id="i3_144" depart="2688.00">
        <route edges="771754621 771731732 1159554013#0 135488882#0 780210981#0 780210980 28215290#0 771782259#0"/>
    </vehicle>
    <vehicle id="i3_145" depart="2690.00">
        <route edges="771754621 771731732 1159554013#0 135488882#0 780210981#0 780210980 137366598#0 135623338#0"/>
    </vehicle>
    <vehicle id="i3_146" depart="2692.00">
        <route edges="771754621 771731732 1159554013#0 135488882#0 780210981#0 780210980 137366598#0 135623338#0 771688494#0"/>
    </vehicle>
    <vehicle id="i3_147" depart="2694.00">
        <route edges="771754621 771731732 1159554013#0 135488882#0 780210981#0 780210980 28215290#0 771782259#0"/>
    </vehicle>
    <vehicle id="i3_148" depart="2696.00">
        <route edges="771688494#0 771692031#0 831791125#0 585291309#0 771693399 771714814 24585853 771736795 604773906"/>
    </vehicle>
    <vehicle id="i3_149" depart="2698.00">
        <route edges="771754621 771731732 1159554013#0 135488882#0 780210981#0 780210980 137366598#0 135623338#0 135623552#0"/>
    </vehicle>
    <vehicle id="i3_150" depart="2700.00">
        <route edges="771754621 771731732 1159554013#0 135488882#0 780210981#0 780210980 137366598#0 771702976#0 504344458"/>
    </vehicle>
    <vehicle id="i3_151" depart="2702.00">
        <route edges="771754621 771731732 1159554013#0 135488882#0 780210981#0 780210980 28215290#0"/>
    </vehicle>
    <vehicle id="i3_152" depart="2704.00">
        <route edges="771692031#0 831791125#0 585291309#0 771693399 771714814 24585853 771736795 604773906"/>
    </vehicle>
    <vehicle id="i3_153" depart="2706.00">
        <route edges="771754621 1177245703 1177245706 771714812#0 23768614 E1 744281459#0 831791125#0 773857905 E0"/>
    </vehicle>
    <vehicle id="i3_154" depart="2708.00">
        <route edges="771754621 771731732 1159554013#0 135488882#0 780210981#0 780210980 137366598#0 135623338#0"/>
    </vehicle>
    <vehicle id="i3_155" depart="2710.00">
        <route edges="807042703#0 780002168#0 780002167 137366601#0 28215294#0 771693399 771714814 24585853 771736795 604773906"/>
    </vehicle>
    <vehicle id="i3_156" depart="2712.00">